
 ===================================================
  XFOIL Version 6.99
  Copyright (C) 2000   Mark Drela, Harold Youngren

  This software comes with ABSOLUTELY NO WARRANTY,
    subject to the GNU General Public License.

  Caveat computor
 ===================================================

 File  xfoil.def  not found

   QUIT    Exit program

  .OPER    Direct operating point(s)
  .MDES    Complex mapping design routine
  .QDES    Surface speed design routine
  .GDES    Geometry design routine

   SAVE f  Write airfoil to labeled coordinate file
   PSAV f  Write airfoil to plain coordinate file
   ISAV f  Write airfoil to ISES coordinate file
   MSAV f  Write airfoil to MSES coordinate file
   REVE    Reverse written-airfoil node ordering
   DELI i  Change written-airfoil file delimiters

   LOAD f  Read buffer airfoil from coordinate file
   NACA i  Set NACA 4,5-digit airfoil and buffer airfoil
   INTE    Set buffer airfoil by interpolating two airfoils
   NORM    Buffer airfoil normalization toggle
   HALF    Halve the number of points in buffer airfoil
   XYCM rr Change CM reference location, currently  0.25000 0.00000

   BEND    Display structural properties of current airfoil

   PCOP    Set current-airfoil panel nodes directly from buffer airfoil points
   PANE    Set current-airfoil panel nodes ( 160 ) based on curvature
  .PPAR    Show/change paneling

  .PLOP    Plotting options

   WDEF f  Write  current-settings file
   RDEF f  Reread current-settings file
   NAME s  Specify new airfoil name
   NINC    Increment name version number

   Z       Zoom    | (available in all menus)
   U       Unzoom  | 

 XFOIL   c>   Max thickness =     0.120032  at x =   0.297
 Max camber    =    -0.000000  at x =   0.018

 Buffer airfoil set using 245 points

 Blunt trailing edge.  Gap =  0.00252

 Paneling parameters used...
   Number of panel nodes       160
   Panel bunching parameter    1.000
   TE/LE panel density ratio   0.150
   Refined-area/LE panel density ratio    0.200
   Top    side refined area x/c limits  1.000 1.000
   Bottom side refined area x/c limits  1.000 1.000

 XFOIL   c>  
 XFOIL   c>  
 XFOIL   c>  
 Blunt trailing edge.  Gap =  0.00252

 Paneling parameters used...
   Number of panel nodes       160
   Panel bunching parameter    1.000
   TE/LE panel density ratio   0.150
   Refined-area/LE panel density ratio    0.200
   Top    side refined area x/c limits  1.000 1.000
   Bottom side refined area x/c limits  1.000 1.000

 XFOIL   c>  
 XFOIL   c>  
 XFOIL   c>  
.OPERi   c>  
.OPERi   c>  
.OPERi   c>  
.OPERi   c>  
 M  =    0.0000
 Re =  0.9000E+07

.OPERv   c>  
 Polar  1 newly created for accumulation
 Airfoil archived with polar: NACA 0012                                       

Enter  polar save filename  OR  <return> for no file   s>  
 Polar save file will NOT be written

Enter  polar dump filename  OR  <return> for no file   s>  
 Polar dump file will NOT be written

 Polar accumulation enabled

.OPERva   c>   Calculating unit vorticity distributions ...
 Calculating wake trajectory ...
 Calculating source influence matrix ...

 Solving BL system ...

 Initializing BL ...
    side            1  ...
 MRCHUE: Inverse mode at  41     Hk =   2.500
 MRCHUE: Inverse mode at  81     Hk =   2.500
    side            2  ...
 MRCHUE: Inverse mode at  41     Hk =   2.500
 MRCHUE: Inverse mode at  81     Hk =   2.500

 Side 1  free  transition at x/c =  0.3538   41
 Side 2  free  transition at x/c =  0.3537   41

   1   rms: 0.5499E-01   max: -.6953E+00   D at   81  2   RLX: 0.719
       a =  0.000      CL = -0.0001
      Cm =  0.0000     CD =  0.00493   =>   CDf =  0.00442    CDp =  0.00052

 Side 1  free  transition at x/c =  0.3557   41
 Side 2  free  transition at x/c =  0.3554   41

   2   rms: 0.4608E-01   max: -.5985E+00   D at   81  2   RLX: 0.835
       a =  0.000      CL = -0.0001
      Cm =  0.0000     CD =  0.00496   =>   CDf =  0.00443    CDp =  0.00053

 Side 1  free  transition at x/c =  0.3557   41
 Side 2  free  transition at x/c =  0.3556   41

   3   rms: 0.3070E-01   max: -.3837E+00   D at   81  2
       a =  0.000      CL =  0.0000
      Cm = -0.0000     CD =  0.00504   =>   CDf =  0.00444    CDp =  0.00061

 Side 1  free  transition at x/c =  0.3553   41
 Side 2  free  transition at x/c =  0.3555   41

   4   rms: 0.8213E-02   max: -.9151E-01   D at   81  2
       a =  0.000      CL =  0.0000
      Cm = -0.0000     CD =  0.00507   =>   CDf =  0.00444    CDp =  0.00064

 Side 1  free  transition at x/c =  0.3553   41
 Side 2  free  transition at x/c =  0.3555   41

   5   rms: 0.3314E-03   max: -.3556E-02   D at   81  2
       a =  0.000      CL =  0.0000
      Cm = -0.0000     CD =  0.00508   =>   CDf =  0.00444    CDp =  0.00064

 Side 1  free  transition at x/c =  0.3553   41
 Side 2  free  transition at x/c =  0.3555   41

   6   rms: 0.1874E-05   max: -.4392E-04   C at   41  2
       a =  0.000      CL =  0.0000
      Cm = -0.0000     CD =  0.00508   =>   CDf =  0.00444    CDp =  0.00064
      9.000    2.7559   0.005077   0.000000   0.000000   0.000000    0.3553     #

 Point added to stored polar  1
 Save file unspecified or not available
 Dump file unspecified or not available

.OPERva   c>  
.OPERva   c>  
.OPERva   c>   Calculating wake trajectory ...
 Calculating source influence matrix ...

 Solving BL system ...

 Side 1  free  transition at x/c =  0.3553   41
 Side 2  free  transition at x/c =  0.3555   41

   1   rms: 0.3251E+00   max: 0.5218E+01   C at   41  1   RLX: 0.097
       a =  1.000      CL =  0.0113
      Cm = -0.0001     CD =  0.00508   =>   CDf =  0.00444    CDp =  0.00064

 Side 1  free  transition at x/c =  0.3476   41
 Side 2  free  transition at x/c =  0.3612   42

   2   rms: 0.2673E+00   max: 0.2768E+01   C at   41  1   RLX: 0.242
       a =  1.000      CL =  0.0358
      Cm = -0.0001     CD =  0.00509   =>   CDf =  0.00444    CDp =  0.00065

 Side 1  free  transition at x/c =  0.3306   40
 Side 2  free  transition at x/c =  0.3718   42

   3   rms: 0.1855E+00   max: 0.1857E+01   C at   40  1   RLX: 0.286
       a =  1.000      CL =  0.0585
      Cm = -0.0002     CD =  0.00519   =>   CDf =  0.00445    CDp =  0.00074

 Side 1  free  transition at x/c =  0.3138   40
 Side 2  free  transition at x/c =  0.3751   42

   4   rms: 0.1301E+00   max: -.1219E+01   D at   40  1   RLX: 0.410
       a =  1.000      CL =  0.0813
      Cm = -0.0003     CD =  0.00522   =>   CDf =  0.00451    CDp =  0.00071

 Side 1  free  transition at x/c =  0.2975   39
 Side 2  free  transition at x/c =  0.3964   43

   5   rms: 0.1121E+00   max: -.1381E+01   C at   43  2   RLX: 0.362
       a =  1.000      CL =  0.0926
      Cm = -0.0002     CD =  0.00515   =>   CDf =  0.00449    CDp =  0.00066

 Side 1  free  transition at x/c =  0.2902   38
 Side 2  free  transition at x/c =  0.4057   44

   6   rms: 0.5550E-01   max: 0.9176E+00   C at   38  1
       a =  1.000      CL =  0.1140
      Cm = -0.0003     CD =  0.00513   =>   CDf =  0.00449    CDp =  0.00065

 Side 1  free  transition at x/c =  0.2745   37
 Side 2  free  transition at x/c =  0.4371   45

   7   rms: 0.1126E-01   max: -.2633E+00   C at   45  2
       a =  1.000      CL =  0.1135
      Cm = -0.0003     CD =  0.00513   =>   CDf =  0.00445    CDp =  0.00068

 Side 1  free  transition at x/c =  0.2750   37
 Side 2  free  transition at x/c =  0.4372   45

   8   rms: 0.1654E-03   max: -.4351E-02   C at   45  2
       a =  1.000      CL =  0.1135
      Cm = -0.0003     CD =  0.00513   =>   CDf =  0.00445    CDp =  0.00068

 Side 1  free  transition at x/c =  0.2750   37
 Side 2  free  transition at x/c =  0.4372   45

   9   rms: 0.2953E-05   max: -.2898E-04   D at    4  2
       a =  1.000      CL =  0.1135
      Cm = -0.0003     CD =  0.00513   =>   CDf =  0.00445    CDp =  0.00068
      9.000    2.7576   0.005131   0.000000   0.000000   0.000000    0.2750     #

 Point added to stored polar  1
 Save file unspecified or not available
 Dump file unspecified or not available

.OPERva   c>  
.OPERva   c>  
.OPERva   c>   Calculating wake trajectory ...
 Calculating source influence matrix ...

 Solving BL system ...

 Side 1  free  transition at x/c =  0.2750   37
 Side 2  free  transition at x/c =  0.4372   45

   1   rms: 0.3404E+00   max: 0.5558E+01   C at   37  1   RLX: 0.092
       a =  2.000      CL =  0.1241
      Cm = -0.0003     CD =  0.00514   =>   CDf =  0.00443    CDp =  0.00070

 Side 1  free  transition at x/c =  0.2683   38
 Side 2  free  transition at x/c =  0.4425   45

   2   rms: 0.2797E+00   max: 0.3510E+01   C at   38  1   RLX: 0.236
       a =  2.000      CL =  0.1481
      Cm = -0.0003     CD =  0.00518   =>   CDf =  0.00445    CDp =  0.00072

 Side 1  free  transition at x/c =  0.2508   37
 Side 2  free  transition at x/c =  0.4542   45

   3   rms: 0.2130E+00   max: -.2749E+01   C at   45  2   RLX: 0.182
       a =  2.000      CL =  0.1626
      Cm = -0.0004     CD =  0.00526   =>   CDf =  0.00448    CDp =  0.00078

 Side 1  free  transition at x/c =  0.2424   36
 Side 2  free  transition at x/c =  0.4670   46

   4   rms: 0.1785E+00   max: -.2875E+01   C at   46  2   RLX: 0.174
       a =  2.000      CL =  0.1738
      Cm = -0.0004     CD =  0.00520   =>   CDf =  0.00447    CDp =  0.00073

 Side 1  free  transition at x/c =  0.2360   36
 Side 2  free  transition at x/c =  0.4711   46

   5   rms: 0.1395E+00   max: -.1646E+01   C at   46  2   RLX: 0.304
       a =  2.000      CL =  0.1901
      Cm = -0.0005     CD =  0.00529   =>   CDf =  0.00448    CDp =  0.00081

 Side 1  free  transition at x/c =  0.2254   35
 Side 2  free  transition at x/c =  0.4858   47

   6   rms: 0.1001E+00   max: 0.1946E+01   C at   35  1   RLX: 0.615
       a =  2.000      CL =  0.2132
      Cm = -0.0005     CD =  0.00529   =>   CDf =  0.00445    CDp =  0.00083

 Side 1  free  transition at x/c =  0.2091   35
 Side 2  free  transition at x/c =  0.4897   47

   7   rms: 0.4168E-01   max: 0.6340E+00   C at   35  1
       a =  2.000      CL =  0.2272
      Cm = -0.0005     CD =  0.00531   =>   CDf =  0.00452    CDp =  0.00079

 Side 1  free  transition at x/c =  0.1976   35
 Side 2  free  transition at x/c =  0.5195   48

   8   rms: 0.9617E-02   max: -.2234E+00   C at   48  2
       a =  2.000      CL =  0.2267
      Cm = -0.0005     CD =  0.00529   =>   CDf =  0.00448    CDp =  0.00081

 Side 1  free  transition at x/c =  0.1981   35
 Side 2  free  transition at x/c =  0.5174   48

   9   rms: 0.7470E-03   max: -.1886E-01   C at   48  2
       a =  2.000      CL =  0.2267
      Cm = -0.0005     CD =  0.00530   =>   CDf =  0.00448    CDp =  0.00082

 Side 1  free  transition at x/c =  0.1981   35
 Side 2  free  transition at x/c =  0.5177   48

  10   rms: 0.3841E-05   max: -.9445E-04   C at   48  2
       a =  2.000      CL =  0.2267
      Cm = -0.0005     CD =  0.00530   =>   CDf =  0.00448    CDp =  0.00082
      9.000    2.7670   0.005297   0.000000   0.000000   0.000000    0.1981     #

 Point added to stored polar  1
 Save file unspecified or not available
 Dump file unspecified or not available

.OPERva   c>  
.OPERva   c>  
.OPERva   c>   Calculating wake trajectory ...
 Calculating source influence matrix ...

 Solving BL system ...

 Side 1  free  transition at x/c =  0.1981   35
 Side 2  free  transition at x/c =  0.5177   48

   1   rms: 0.2859E+00   max: -.5167E+01   C at   48  2   RLX: 0.097
       a =  3.000      CL =  0.2377
      Cm = -0.0005     CD =  0.00532   =>   CDf =  0.00448    CDp =  0.00084

 Side 1  free  transition at x/c =  0.1933   34
 Side 2  free  transition at x/c =  0.5214   49

   2   rms: 0.2379E+00   max: 0.4047E+01   C at   34  1   RLX: 0.371
       a =  3.000      CL =  0.2760
      Cm = -0.0006     CD =  0.00539   =>   CDf =  0.00446    CDp =  0.00093

 Side 1  free  transition at x/c =  0.1671   34
 Side 2  free  transition at x/c =  0.5511   49

   3   rms: 0.1372E+00   max: 0.1300E+01   T at    2  1   RLX: 0.435
       a =  3.000      CL =  0.3042
      Cm = -0.0007     CD =  0.00547   =>   CDf =  0.00450    CDp =  0.00097

 Side 1  free  transition at x/c =  0.1508   32
 Side 2  free  transition at x/c =  0.5576   50

   4   rms: 0.7881E-01   max: 0.1056E+01   C at   32  1
       a =  3.000      CL =  0.3404
      Cm = -0.0007     CD =  0.00550   =>   CDf =  0.00455    CDp =  0.00095

 Side 1  free  transition at x/c =  0.1348   31
 Side 2  free  transition at x/c =  0.5706   50

   5   rms: 0.2062E-01   max: -.4828E+00   C at   50  2
       a =  3.000      CL =  0.3404
      Cm = -0.0007     CD =  0.00560   =>   CDf =  0.00459    CDp =  0.00101

 Side 1  free  transition at x/c =  0.1352   31
 Side 2  free  transition at x/c =  0.6001   52

   6   rms: 0.6314E-02   max: -.1279E+00   C at   52  2
       a =  3.000      CL =  0.3397
      Cm = -0.0006     CD =  0.00551   =>   CDf =  0.00450    CDp =  0.00102

 Side 1  free  transition at x/c =  0.1352   31
 Side 2  free  transition at x/c =  0.5996   52

   7   rms: 0.8248E-03   max: -.2026E-01   C at   52  2
       a =  3.000      CL =  0.3398
      Cm = -0.0006     CD =  0.00552   =>   CDf =  0.00450    CDp =  0.00102

 Side 1  free  transition at x/c =  0.1352   31
 Side 2  free  transition at x/c =  0.5998   52

   8   rms: 0.5776E-05   max: -.1407E-03   C at   52  2
       a =  3.000      CL =  0.3398
      Cm = -0.0006     CD =  0.00552   =>   CDf =  0.00450    CDp =  0.00102
      9.000    2.8097   0.005520   0.000000   0.000000   0.000000    0.1352     #

 Point added to stored polar  1
 Save file unspecified or not available
 Dump file unspecified or not available

.OPERva   c>  
.OPERva   c>  
.OPERva   c>   Calculating wake trajectory ...
 Calculating source influence matrix ...

 Solving BL system ...

 Side 1  free  transition at x/c =  0.1352   31
 Side 2  free  transition at x/c =  0.5999   52

   1   rms: 0.3179E+00   max: -.5180E+01   C at   52  2   RLX: 0.097
       a =  4.000      CL =  0.3507
      Cm = -0.0006     CD =  0.00554   =>   CDf =  0.00449    CDp =  0.00104

 Side 1  free  transition at x/c =  0.1292   31
 Side 2  free  transition at x/c =  0.6049   53

   2   rms: 0.2514E+00   max: -.2369E+01   D at   31  1   RLX: 0.211
       a =  4.000      CL =  0.3719
      Cm = -0.0007     CD =  0.00567   =>   CDf =  0.00447    CDp =  0.00120

 Side 1  free  transition at x/c =  0.1189   31
 Side 2  free  transition at x/c =  0.6212   53

   3   rms: 0.1911E+00   max: 0.2889E+01   C at   31  1   RLX: 0.374
       a =  4.000      CL =  0.4020
      Cm = -0.0007     CD =  0.00571   =>   CDf =  0.00450    CDp =  0.00121

 Side 1  free  transition at x/c =  0.1047   30
 Side 2  free  transition at x/c =  0.6464   54

   4   rms: 0.1336E+00   max: -.1896E+01   C at   54  2   RLX: 0.264
       a =  4.000      CL =  0.4151
      Cm = -0.0006     CD =  0.00572   =>   CDf =  0.00450    CDp =  0.00122

 Side 1  free  transition at x/c =  0.0981   30
 Side 2  free  transition at x/c =  0.6533   54

   5   rms: 0.8665E-01   max: -.1592E+01   C at   54  2   RLX: 0.314
       a =  4.000      CL =  0.4270
      Cm = -0.0007     CD =  0.00578   =>   CDf =  0.00452    CDp =  0.00126

 Side 1  free  transition at x/c =  0.0948   29
 Side 2  free  transition at x/c =  0.6651   55

   6   rms: 0.6381E-01   max: -.1087E+01   C at   55  2   RLX: 0.460
       a =  4.000      CL =  0.4386
      Cm = -0.0007     CD =  0.00576   =>   CDf =  0.00445    CDp =  0.00131

 Side 1  free  transition at x/c =  0.0915   30
 Side 2  free  transition at x/c =  0.6707   54

   7   rms: 0.3929E-01   max: -.6718E+00   C at   54  2   RLX: 0.744
       a =  4.000      CL =  0.4490
      Cm = -0.0007     CD =  0.00582   =>   CDf =  0.00450    CDp =  0.00132

 Side 1  free  transition at x/c =  0.0869   30
 Side 2  free  transition at x/c =  0.6829   55

   8   rms: 0.6912E-02   max: -.8064E-01   C at   55  2
       a =  4.000      CL =  0.4522
      Cm = -0.0007     CD =  0.00583   =>   CDf =  0.00449    CDp =  0.00133

 Side 1  free  transition at x/c =  0.0850   30
 Side 2  free  transition at x/c =  0.6839   55

   9   rms: 0.1643E-03   max: -.3776E-02   C at   55  2
       a =  4.000      CL =  0.4522
      Cm = -0.0007     CD =  0.00583   =>   CDf =  0.00450    CDp =  0.00133

 Side 1  free  transition at x/c =  0.0849   30
 Side 2  free  transition at x/c =  0.6839   55

  10   rms: 0.1322E-05   max: 0.3099E-04   C at   55  2
       a =  4.000      CL =  0.4522
      Cm = -0.0007     CD =  0.00583   =>   CDf =  0.00450    CDp =  0.00133
      9.000    2.9010   0.005826   0.000000   0.000000   0.000000    0.0849     #

 Point added to stored polar  1
 Save file unspecified or not available
 Dump file unspecified or not available

.OPERva   c>  
.OPERva   c>  
.OPERva   c>   Calculating wake trajectory ...
 Calculating source influence matrix ...

 Solving BL system ...

 Side 1  free  transition at x/c =  0.0849   30
 Side 2  free  transition at x/c =  0.6839   55

   1   rms: 0.2711E+00   max: -.4983E+01   C at   55  2   RLX: 0.100
       a =  5.000      CL =  0.4635
      Cm = -0.0007     CD =  0.00586   =>   CDf =  0.00450    CDp =  0.00137

 Side 1  free  transition at x/c =  0.0820   29
 Side 2  free  transition at x/c =  0.6882   56

   2   rms: 0.2142E+00   max: 0.3203E+01   C at   29  1   RLX: 0.446
       a =  5.000      CL =  0.5090
      Cm = -0.0008     CD =  0.00598   =>   CDf =  0.00450    CDp =  0.00148

 Side 1  free  transition at x/c =  0.0693   28
 Side 2  free  transition at x/c =  0.7077   57

   3   rms: 0.1200E+00   max: 0.1235E+01   C at   28  1   RLX: 0.592
       a =  5.000      CL =  0.5421
      Cm = -0.0009     CD =  0.00614   =>   CDf =  0.00445    CDp =  0.00168

 Side 1  free  transition at x/c =  0.0607   28
 Side 2  free  transition at x/c =  0.7226   57

   4   rms: 0.5358E-01   max: 0.5593E+00   C at   28  1
       a =  5.000      CL =  0.5650
      Cm = -0.0008     CD =  0.00619   =>   CDf =  0.00453    CDp =  0.00165

 Side 1  free  transition at x/c =  0.0550   28
 Side 2  free  transition at x/c =  0.7697   59

   5   rms: 0.1378E-01   max: -.3281E+00   C at   59  2
       a =  5.000      CL =  0.5643
      Cm = -0.0006     CD =  0.00614   =>   CDf =  0.00445    CDp =  0.00169

 Side 1  free  transition at x/c =  0.0549   28
 Side 2  free  transition at x/c =  0.7691   59

   6   rms: 0.2170E-03   max: 0.4424E-02   C at   59  2
       a =  5.000      CL =  0.5643
      Cm = -0.0006     CD =  0.00615   =>   CDf =  0.00445    CDp =  0.00170

 Side 1  free  transition at x/c =  0.0548   28
 Side 2  free  transition at x/c =  0.7690   59

   7   rms: 0.2302E-05   max: 0.5869E-04   C at   59  2
       a =  5.000      CL =  0.5643
      Cm = -0.0006     CD =  0.00615   =>   CDf =  0.00445    CDp =  0.00170
      9.000    3.0316   0.006146   0.000000   0.000000   0.000000    0.0548     #

 Point added to stored polar  1
 Save file unspecified or not available
 Dump file unspecified or not available

.OPERva   c>  
.OPERva   c>  
.OPERva   c>   Calculating wake trajectory ...
 Calculating source influence matrix ...

 Solving BL system ...

 Side 1  free  transition at x/c =  0.0548   28
 Side 2  free  transition at x/c =  0.7690   59

   1   rms: 0.2662E+00   max: -.5170E+01   C at   59  2   RLX: 0.097
       a =  6.000      CL =  0.5751
      Cm = -0.0006     CD =  0.00618   =>   CDf =  0.00444    CDp =  0.00174

 Side 1  free  transition at x/c =  0.0531   27
 Side 2  free  transition at x/c =  0.7742   60

   2   rms: 0.1949E+00   max: 0.1908E+01   D at   60  2   RLX: 0.572
       a =  6.000      CL =  0.6333
      Cm = -0.0007     CD =  0.00626   =>   CDf =  0.00435    CDp =  0.00191

 Side 1  free  transition at x/c =  0.0436   27
 Side 2  free  transition at x/c =  0.7861   59

   3   rms: 0.7358E-01   max: 0.5501E+00   C at   27  1   RLX: 0.989
       a =  6.000      CL =  0.6768
      Cm = -0.0008     CD =  0.00665   =>   CDf =  0.00438    CDp =  0.00228

 Side 1  free  transition at x/c =  0.0384   27
 Side 2  free  transition at x/c =  0.8363   61

   4   rms: 0.1964E-01   max: -.4714E+00   C at   61  2
       a =  6.000      CL =  0.6761
      Cm = -0.0005     CD =  0.00651   =>   CDf =  0.00439    CDp =  0.00212

 Side 1  free  transition at x/c =  0.0383   27
 Side 2  free  transition at x/c =  0.8413   62

   5   rms: 0.1050E-01   max: 0.1694E+00   D at   62  2
       a =  6.000      CL =  0.6759
      Cm = -0.0005     CD =  0.00649   =>   CDf =  0.00438    CDp =  0.00211

 Side 1  free  transition at x/c =  0.0383   27
 Side 2  free  transition at x/c =  0.8490   62

   6   rms: 0.2225E-02   max: 0.5401E-01   C at   62  2
       a =  6.000      CL =  0.6759
      Cm = -0.0005     CD =  0.00649   =>   CDf =  0.00435    CDp =  0.00214

 Side 1  free  transition at x/c =  0.0383   27
 Side 2  free  transition at x/c =  0.8480   62

   7   rms: 0.3651E-04   max: -.8397E-03   C at   62  2
       a =  6.000      CL =  0.6759
      Cm = -0.0005     CD =  0.00649   =>   CDf =  0.00436    CDp =  0.00213
      9.000    3.2112   0.006489   0.000000   0.000000   0.000000    0.0383     #

 Point added to stored polar  1
 Save file unspecified or not available
 Dump file unspecified or not available

.OPERva   c>  
.OPERva   c>  
.OPERva   c>   Calculating wake trajectory ...
 Calculating source influence matrix ...

 Solving BL system ...

 Side 1  free  transition at x/c =  0.0383   27
 Side 2  free  transition at x/c =  0.8480   62

   1   rms: 0.2356E+00   max: -.3815E+01   C at   62  2   RLX: 0.131
       a =  7.000      CL =  0.6904
      Cm = -0.0005     CD =  0.00653   =>   CDf =  0.00435    CDp =  0.00218

 Side 1  free  transition at x/c =  0.0368   27
 Side 2  free  transition at x/c =  0.8545   62

   2   rms: 0.1980E+00   max: -.2995E+01   C at   62  2   RLX: 0.167
       a =  7.000      CL =  0.7066
      Cm = -0.0005     CD =  0.00664   =>   CDf =  0.00435    CDp =  0.00228

 Side 1  free  transition at x/c =  0.0345   27
 Side 2  free  transition at x/c =  0.8672   63

   3   rms: 0.1372E+00   max: -.1134E+01   C at   63  2   RLX: 0.441
       a =  7.000      CL =  0.7421
      Cm = -0.0005     CD =  0.00681   =>   CDf =  0.00434    CDp =  0.00247

 Side 1  free  transition at x/c =  0.0310   26
 Side 2  free  transition at x/c =  0.8713   63

   4   rms: 0.7250E-01   max: -.4501E+00   D at   26  1
       a =  7.000      CL =  0.7876
      Cm = -0.0005     CD =  0.00707   =>   CDf =  0.00423    CDp =  0.00283

 Side 1  free  transition at x/c =  0.0279   26
 Side 2  free  transition at x/c =  0.9116   65

   5   rms: 0.1194E-01   max: -.1804E+00   C at   65  2
       a =  7.000      CL =  0.7858
      Cm = -0.0000     CD =  0.00692   =>   CDf =  0.00429    CDp =  0.00263

 Side 1  free  transition at x/c =  0.0278   26
 Side 2  free  transition at x/c =  0.9114   65

   6   rms: 0.1481E-02   max: -.2487E-01   C at   65  2
       a =  7.000      CL =  0.7861
      Cm = -0.0001     CD =  0.00693   =>   CDf =  0.00428    CDp =  0.00265

 Side 1  free  transition at x/c =  0.0278   26
 Side 2  free  transition at x/c =  0.9119   65

   7   rms: 0.3345E-05   max: 0.3614E-04   C at   65  2
       a =  7.000      CL =  0.7861
      Cm = -0.0001     CD =  0.00693   =>   CDf =  0.00428    CDp =  0.00265
      9.000    3.3984   0.006934   0.000000   0.000000   0.000000    0.0278     #

 Point added to stored polar  1
 Save file unspecified or not available
 Dump file unspecified or not available

.OPERva   c>  
.OPERva   c>  
.OPERva   c>   Calculating wake trajectory ...
 Calculating source influence matrix ...

 Solving BL system ...

 Side 1  free  transition at x/c =  0.0278   26
 Side 2  free  transition at x/c =  0.9119   65

   1   rms: 0.1958E+00   max: -.2371E+01   C at   65  2   RLX: 0.211
       a =  8.000      CL =  0.8090
      Cm =  0.0000     CD =  0.00701   =>   CDf =  0.00428    CDp =  0.00273

 Side 1  free  transition at x/c =  0.0264   26
 Side 2  free  transition at x/c =  0.9196   65

   2   rms: 0.1506E+00   max: -.1502E+01   C at   65  2   RLX: 0.333
       a =  8.000      CL =  0.8381
      Cm = -0.0000     CD =  0.00722   =>   CDf =  0.00413    CDp =  0.00309

 Side 1  free  transition at x/c =  0.0240   27
 Side 2  free  transition at x/c =  0.9342   65

   3   rms: 0.5517E+00   max: 0.9411E+01   T at    2  1   RLX: 0.111
       a =  8.000      CL =  0.8446
      Cm =  0.0000     CD =  0.00724   =>   CDf =  0.00427    CDp =  0.00297

 Side 1  free  transition at x/c =  0.0237   26
 Side 2  free  transition at x/c =  0.9355   65

   4   rms: 0.7622E-01   max: -.2799E+00   D at   26  1
       a =  8.000      CL =  0.8964
      Cm =  0.0002     CD =  0.00748   =>   CDf =  0.00427    CDp =  0.00321

 Side 1  free  transition at x/c =  0.0213   26
 Side 2  free  transition at x/c =  0.9641   67

   5   rms: 0.1061E-01   max: 0.2350E+00   C at   67  2
       a =  8.000      CL =  0.8936
      Cm =  0.0009     CD =  0.00749   =>   CDf =  0.00423    CDp =  0.00326

 Side 1  free  transition at x/c =  0.0213   26
 Side 2  free  transition at x/c =  0.9566   67

   6   rms: 0.1729E-02   max: 0.3678E-01   D at   67  2
       a =  8.000      CL =  0.8941
      Cm =  0.0007     CD =  0.00750   =>   CDf =  0.00425    CDp =  0.00325

 Side 1  free  transition at x/c =  0.0213   26
 Side 2  free  transition at x/c =  0.9572   67

   7   rms: 0.4241E-04   max: -.7349E-03   D at   67  2
       a =  8.000      CL =  0.8941
      Cm =  0.0007     CD =  0.00750   =>   CDf =  0.00425    CDp =  0.00325
      9.000    3.5749   0.007499   0.000000   0.000000   0.000000    0.0213     #

 Point added to stored polar  1
 Save file unspecified or not available
 Dump file unspecified or not available

.OPERva   c>  
.OPERva   c>  
.OPERva   c>   Calculating wake trajectory ...
 Calculating source influence matrix ...

 Solving BL system ...

 Side 1  free  transition at x/c =  0.0213   26
 Side 2  free  transition at x/c =  0.9571   67

   1   rms: 0.1818E+00   max: 0.1287E+01   D at   67  2   RLX: 0.416
       a =  9.000      CL =  0.9369
      Cm =  0.0015     CD =  0.00777   =>   CDf =  0.00409    CDp =  0.00368

 Side 1  free  transition at x/c =  0.0196   26
 Side 2  free  transition at x/c =  0.9654   66

   2   rms: 0.9638E-01   max: -.3504E+00   D at   26  1
       a =  9.000      CL =  1.0027
      Cm =  0.0013     CD =  0.00812   =>   CDf =  0.00425    CDp =  0.00388

 Side 1  free  transition at x/c =  0.0172   26
 Side 2  free  transition at x/c =  0.9939   69

   3   rms: 0.1759E-01   max: 0.3368E+00   C at   69  2
       a =  9.000      CL =  0.9963
      Cm =  0.0028     CD =  0.00816   =>   CDf =  0.00425    CDp =  0.00390

 Side 1  free  transition at x/c =  0.0170   26
 Side 2  free  transition at x/c =  0.9887   68

   4   rms: 0.5874E-02   max: 0.7121E-01   C at   68  2
       a =  9.000      CL =  0.9999
      Cm =  0.0019     CD =  0.00817   =>   CDf =  0.00425    CDp =  0.00392

 Side 1  free  transition at x/c =  0.0169   26
 Side 2  free  transition at x/c =  0.9852   68

   5   rms: 0.7575E-03   max: -.1465E-01   C at   68  2
       a =  9.000      CL =  0.9999
      Cm =  0.0019     CD =  0.00817   =>   CDf =  0.00426    CDp =  0.00392

 Side 1  free  transition at x/c =  0.0169   26
 Side 2  free  transition at x/c =  0.9855   68

   6   rms: 0.2175E-05   max: -.2912E-04   C at   68  2
       a =  9.000      CL =  1.0000
      Cm =  0.0019     CD =  0.00817   =>   CDf =  0.00425    CDp =  0.00392
      9.000    3.8798   0.008174   0.000000   0.000000   0.000000    0.0169     #

 Point added to stored polar  1
 Save file unspecified or not available
 Dump file unspecified or not available

.OPERva   c>  
.OPERva   c>  
.OPERva   c>   Calculating wake trajectory ...
 Calculating source influence matrix ...

 Solving BL system ...

 Side 1  free  transition at x/c =  0.0169   26
 Side 2  free  transition at x/c =  0.9855   68

   1   rms: 0.1675E+00   max: 0.6971E+00   D at   68  2   RLX: 0.774
       a = 10.000      CL =  1.0834
      Cm =  0.0024     CD =  0.00879   =>   CDf =  0.00410    CDp =  0.00469

 Side 1  free  transition at x/c =  0.0143   26
 Side 2  free  transition at x/c =  0.9910   67

   2   rms: 0.3716E-01   max: -.3319E+00   T at   67  2
       a = 10.000      CL =  1.0999
      Cm =  0.0043     CD =  0.00894   =>   CDf =  0.00413    CDp =  0.00481

 Side 1  free  transition at x/c =  0.0141   27
 Side 2 forced transition at x/c =  1.0000   67

   3   rms: 0.5693E-01   max: 0.1145E+01   C at   67  2
       a = 10.000      CL =  1.1251
      Cm = -0.0016     CD =  0.00904   =>   CDf =  0.00429    CDp =  0.00475

 Side 1  free  transition at x/c =  0.0137   27
 Side 2  free  transition at x/c =  0.9964   67

   4   rms: 0.1115E-01   max: 0.1567E+00   D at   66  2
       a = 10.000      CL =  1.1163
      Cm =  0.0005     CD =  0.00901   =>   CDf =  0.00431    CDp =  0.00470

 Side 1  free  transition at x/c =  0.0138   27
 Side 2  free  transition at x/c =  0.9965   67

   5   rms: 0.7909E-03   max: 0.1268E-01   D at   66  2
       a = 10.000      CL =  1.1158
      Cm =  0.0006     CD =  0.00901   =>   CDf =  0.00430    CDp =  0.00471

 Side 1  free  transition at x/c =  0.0138   27
 Side 2  free  transition at x/c =  0.9964   67

   6   rms: 0.6550E-05   max: 0.1169E-03   C at   67  2
       a = 10.000      CL =  1.1158
      Cm =  0.0006     CD =  0.00901   =>   CDf =  0.00430    CDp =  0.00471
      9.000    4.1101   0.009011   0.000309   0.000318   0.000009    0.0138     #

 Point added to stored polar  1
 Save file unspecified or not available
 Dump file unspecified or not available

.OPERva   c>  
.OPERva   c>  
.OPERva   c>   Calculating wake trajectory ...
 Calculating source influence matrix ...

 Solving BL system ...

 Side 1  free  transition at x/c =  0.0138   27
 Side 2  free  transition at x/c =  0.9964   67

   1   rms: 0.1685E+00   max: 0.3685E+00   D at   67  2
       a = 11.000      CL =  1.2347
      Cm = -0.0016     CD =  0.00999   =>   CDf =  0.00413    CDp =  0.00585

 Side 1  free  transition at x/c =  0.0116   27
 Side 2  free  transition at x/c =  0.9996   66

   2   rms: 0.1224E-01   max: 0.1681E+00   D at   27  1
       a = 11.000      CL =  1.2339
      Cm = -0.0015     CD =  0.00994   =>   CDf =  0.00435    CDp =  0.00559

 Side 1  free  transition at x/c =  0.0124   27
 Side 2  free  transition at x/c =  0.9998   66

   3   rms: 0.3967E-02   max: -.7150E-01   D at   27  1
       a = 11.000      CL =  1.2339
      Cm = -0.0015     CD =  0.00994   =>   CDf =  0.00433    CDp =  0.00560

 Side 1  free  transition at x/c =  0.0122   27
 Side 2  free  transition at x/c =  0.9998   66

   4   rms: 0.2795E-03   max: -.5031E-02   D at   27  1
       a = 11.000      CL =  1.2339
      Cm = -0.0015     CD =  0.00994   =>   CDf =  0.00433    CDp =  0.00560

 Side 1  free  transition at x/c =  0.0122   27
 Side 2  free  transition at x/c =  0.9998   66

   5   rms: 0.2161E-05   max: -.3959E-04   D at   27  1
       a = 11.000      CL =  1.2339
      Cm = -0.0015     CD =  0.00994   =>   CDf =  0.00434    CDp =  0.00560
      9.000    4.1620   0.009935   0.000330   0.000341   0.000011    0.0122     #

 Point added to stored polar  1
 Save file unspecified or not available
 Dump file unspecified or not available

.OPERva   c>  
.OPERva   c>  
.OPERva   c>   Calculating wake trajectory ...
 Calculating source influence matrix ...

 Solving BL system ...

 Side 1  free  transition at x/c =  0.0122   27
 Side 2  free  transition at x/c =  0.9998   66

   1   rms: 0.1685E+00   max: -.7192E+00   D at   27  1   RLX: 0.695
       a = 12.000      CL =  1.3141
      Cm = -0.0026     CD =  0.01073   =>   CDf =  0.00415    CDp =  0.00658

 Side 1  free  transition at x/c =  0.0109   27
 Side 2 forced transition at x/c =  1.0000   65

   2   rms: 0.6943E-01   max: -.7648E+00   C at   65  2   RLX: 0.654
       a = 12.000      CL =  1.3196
      Cm =  0.0009     CD =  0.01080   =>   CDf =  0.00434    CDp =  0.00646

 Side 1  free  transition at x/c =  0.0109   27
 Side 2 forced transition at x/c =  1.0000   65

   3   rms: 0.1849E-01   max: 0.1269E+00   C at   65  2
       a = 12.000      CL =  1.3306
      Cm =  0.0010     CD =  0.01089   =>   CDf =  0.00434    CDp =  0.00654

 Side 1  free  transition at x/c =  0.0108   27
 Side 2 forced transition at x/c =  1.0000   65

   4   rms: 0.1837E-02   max: 0.3548E-01   C at   65  2
       a = 12.000      CL =  1.3306
      Cm =  0.0010     CD =  0.01089   =>   CDf =  0.00434    CDp =  0.00655

 Side 1  free  transition at x/c =  0.0108   27
 Side 2 forced transition at x/c =  1.0000   65

   5   rms: 0.9126E-04   max: 0.1935E-02   C at   65  2
       a = 12.000      CL =  1.3306
      Cm =  0.0010     CD =  0.01089   =>   CDf =  0.00434    CDp =  0.00655
      9.000    4.0681   0.010890   0.000351   0.000357   0.000007    0.0108     #

 Point added to stored polar  1
 Save file unspecified or not available
 Dump file unspecified or not available

.OPERva   c>  
.OPERva   c>  
.OPERva   c>   Calculating wake trajectory ...
 Calculating source influence matrix ...

 Solving BL system ...

 Side 1  free  transition at x/c =  0.0108   27
 Side 2 forced transition at x/c =  1.0000   65

   1   rms: 0.1518E+00   max: -.6245E+00   C at   65  2   RLX: 0.801
       a = 13.000      CL =  1.4090
      Cm =  0.0027     CD =  0.01169   =>   CDf =  0.00414    CDp =  0.00755

 Side 1  free  transition at x/c =  0.0098   28
 Side 2 forced transition at x/c =  1.0000   64

   2   rms: 0.3168E-01   max: -.1541E+00   D at   28  1
       a = 13.000      CL =  1.4278
      Cm =  0.0030     CD =  0.01207   =>   CDf =  0.00435    CDp =  0.00772

 Side 1  free  transition at x/c =  0.0094   28
 Side 2 forced transition at x/c =  1.0000   64

   3   rms: 0.1385E-02   max: -.2106E-01   D at   28  1
       a = 13.000      CL =  1.4277
      Cm =  0.0031     CD =  0.01207   =>   CDf =  0.00435    CDp =  0.00772

 Side 1  free  transition at x/c =  0.0093   28
 Side 2 forced transition at x/c =  1.0000   64

   4   rms: 0.5291E-04   max: -.6993E-03   D at   28  1
       a = 13.000      CL =  1.4277
      Cm =  0.0031     CD =  0.01207   =>   CDf =  0.00435    CDp =  0.00772
      9.000    4.5034   0.012071   0.000375   0.000408   0.000033    0.0093     #

 Point added to stored polar  1
 Save file unspecified or not available
 Dump file unspecified or not available

.OPERva   c>  
.OPERva   c>  
.OPERva   c>   Calculating wake trajectory ...
 Calculating source influence matrix ...

 Solving BL system ...

 Side 1  free  transition at x/c =  0.0093   28
 Side 2 forced transition at x/c =  1.0000   64

   1   rms: 0.1518E+00   max: -.4186E+00   C at   64  2
       a = 14.000      CL =  1.5232
      Cm =  0.0051     CD =  0.01342   =>   CDf =  0.00413    CDp =  0.00929

 Side 1  free  transition at x/c =  0.0083   28
 Side 2 forced transition at x/c =  1.0000   63

   2   rms: 0.3002E-01   max: -.4298E+00   D at   28  1
       a = 14.000      CL =  1.5239
      Cm =  0.0050     CD =  0.01325   =>   CDf =  0.00430    CDp =  0.00895

 Side 1  free  transition at x/c =  0.0087   28
 Side 2 forced transition at x/c =  1.0000   63

   3   rms: 0.5380E-02   max: -.1028E+00   C at   28  1
       a = 14.000      CL =  1.5236
      Cm =  0.0050     CD =  0.01329   =>   CDf =  0.00432    CDp =  0.00897

 Side 1  free  transition at x/c =  0.0086   28
 Side 2 forced transition at x/c =  1.0000   63

   4   rms: 0.2596E-03   max: -.1318E-02   U at   28  1
       a = 14.000      CL =  1.5235
      Cm =  0.0050     CD =  0.01330   =>   CDf =  0.00433    CDp =  0.00897

 Side 1  free  transition at x/c =  0.0086   28
 Side 2 forced transition at x/c =  1.0000   63

   5   rms: 0.8229E-06   max: -.8253E-05   C at   28  1
       a = 14.000      CL =  1.5235
      Cm =  0.0050     CD =  0.01330   =>   CDf =  0.00433    CDp =  0.00897
      9.000    4.1796   0.013297   0.000400   0.000428   0.000029    0.0086     #

 Point added to stored polar  1
 Save file unspecified or not available
 Dump file unspecified or not available

.OPERva   c>  
.OPERva   c>  
.OPERva   c>   Calculating wake trajectory ...
 Calculating source influence matrix ...

 Solving BL system ...

 Side 1  free  transition at x/c =  0.0086   28
 Side 2 forced transition at x/c =  1.0000   63

   1   rms: 0.1459E+00   max: -.3323E+00   C at   63  2
       a = 15.000      CL =  1.6178
      Cm =  0.0071     CD =  0.01457   =>   CDf =  0.00409    CDp =  0.01048

 Side 1  free  transition at x/c =  0.0080   29
 Side 2 forced transition at x/c =  1.0000   62

   2   rms: 0.5275E-02   max: -.6694E-01   D at    2  1
       a = 15.000      CL =  1.6142
      Cm =  0.0076     CD =  0.01473   =>   CDf =  0.00430    CDp =  0.01043

 Side 1  free  transition at x/c =  0.0080   29
 Side 2 forced transition at x/c =  1.0000   62

   3   rms: 0.1433E-03   max: -.1639E-02   D at    4  1
       a = 15.000      CL =  1.6142
      Cm =  0.0076     CD =  0.01473   =>   CDf =  0.00430    CDp =  0.01043

 Side 1  free  transition at x/c =  0.0080   29
 Side 2 forced transition at x/c =  1.0000   62

   4   rms: 0.1231E-05   max: -.2263E-04   D at    2  1
       a = 15.000      CL =  1.6142
      Cm =  0.0076     CD =  0.01473   =>   CDf =  0.00430    CDp =  0.01043
      9.000    4.4896   0.014729   0.000430   0.000465   0.000036    0.0080     #

 Point added to stored polar  1
 Save file unspecified or not available
 Dump file unspecified or not available

.OPERva   c>  
.OPERva   c>  
.OPERva   c>   Calculating wake trajectory ...
 Calculating source influence matrix ...

 Solving BL system ...

 Side 1  free  transition at x/c =  0.0080   29
 Side 2 forced transition at x/c =  1.0000   62

   1   rms: 0.1455E+00   max: -.3328E+00   C at   62  2
       a = 16.000      CL =  1.7005
      Cm =  0.0106     CD =  0.01640   =>   CDf =  0.00430    CDp =  0.01211

 Side 1  free  transition at x/c =  0.0071   29
 Side 2 forced transition at x/c =  1.0000   62

   2   rms: 0.8820E-02   max: 0.5232E-01   D at   28  1
       a = 16.000      CL =  1.6949
      Cm =  0.0114     CD =  0.01659   =>   CDf =  0.00425    CDp =  0.01234

 Side 1  free  transition at x/c =  0.0069   29
 Side 2 forced transition at x/c =  1.0000   62

   3   rms: 0.5926E-03   max: 0.6258E-02   D at   28  1
       a = 16.000      CL =  1.6948
      Cm =  0.0114     CD =  0.01659   =>   CDf =  0.00425    CDp =  0.01234

 Side 1  free  transition at x/c =  0.0069   29
 Side 2 forced transition at x/c =  1.0000   62

   4   rms: 0.8389E-05   max: 0.7544E-04   D at   28  1
       a = 16.000      CL =  1.6948
      Cm =  0.0114     CD =  0.01659   =>   CDf =  0.00425    CDp =  0.01234
      9.000    5.0727   0.016592   0.000455   0.000524   0.000070    0.0069     #

 Point added to stored polar  1
 Save file unspecified or not available
 Dump file unspecified or not available

.OPERva   c>  
.OPERva   c>  
.OPERva   c>   Calculating wake trajectory ...
 Calculating source influence matrix ...

 Solving BL system ...

 Side 1  free  transition at x/c =  0.0069   29
 Side 2 forced transition at x/c =  1.0000   62

   1   rms: 0.1410E+00   max: -.3666E+00   C at   62  2
       a = 17.000      CL =  1.7691
      Cm =  0.0159     CD =  0.01873   =>   CDf =  0.00398    CDp =  0.01475

 Side 1  free  transition at x/c =  0.0063   29
 Side 2 forced transition at x/c =  1.0000   61

   2   rms: 0.4982E-01   max: -.1998E+00   T at   30  1   RLX: 0.817
       a = 17.000      CL =  1.7645
      Cm =  0.0164     CD =  0.01834   =>   CDf =  0.00411    CDp =  0.01423

 Side 1  free  transition at x/c =  0.0067   29
 Side 2 forced transition at x/c =  1.0000   61

   3   rms: 0.9209E-02   max: -.1269E+00   C at   29  1
       a = 17.000      CL =  1.7607
      Cm =  0.0174     CD =  0.01846   =>   CDf =  0.00416    CDp =  0.01430

 Side 1  free  transition at x/c =  0.0067   29
 Side 2 forced transition at x/c =  1.0000   61

   4   rms: 0.6924E-03   max: 0.7219E-02   C at   61  2
       a = 17.000      CL =  1.7609
      Cm =  0.0174     CD =  0.01847   =>   CDf =  0.00416    CDp =  0.01431

 Side 1  free  transition at x/c =  0.0067   29
 Side 2 forced transition at x/c =  1.0000   61

   5   rms: 0.8741E-05   max: 0.1073E-03   D at   99  1
       a = 17.000      CL =  1.7609
      Cm =  0.0174     CD =  0.01847   =>   CDf =  0.00416    CDp =  0.01431
      9.000    4.2102   0.018469   0.000482   0.000552   0.000070    0.0067     #

 Point added to stored polar  1
 Save file unspecified or not available
 Dump file unspecified or not available

.OPERva   c>  
.OPERva   c>  
.OPERva   c>   Calculating wake trajectory ...
 Calculating source influence matrix ...

 Solving BL system ...

 Side 1  free  transition at x/c =  0.0067   29
 Side 2 forced transition at x/c =  1.0000   61

   1   rms: 0.1291E+00   max: -.5331E+00   C at   61  2   RLX: 0.938
       a = 18.000      CL =  1.8123
      Cm =  0.0241     CD =  0.02053   =>   CDf =  0.00416    CDp =  0.01636

 Side 1  free  transition at x/c =  0.0065   29
 Side 2 forced transition at x/c =  1.0000   61

   2   rms: 0.1591E-01   max: 0.1437E+00   D at   98  1
       a = 18.000      CL =  1.8098
      Cm =  0.0244     CD =  0.02113   =>   CDf =  0.00407    CDp =  0.01706

 Side 1  free  transition at x/c =  0.0065   29
 Side 2 forced transition at x/c =  1.0000   61

   3   rms: 0.2914E-02   max: 0.4387E-01   D at   96  1
       a = 18.000      CL =  1.8097
      Cm =  0.0243     CD =  0.02112   =>   CDf =  0.00405    CDp =  0.01707

 Side 1  free  transition at x/c =  0.0065   29
 Side 2 forced transition at x/c =  1.0000   61

   4   rms: 0.3333E-03   max: -.4778E-02   D at   96  1
       a = 18.000      CL =  1.8099
      Cm =  0.0243     CD =  0.02111   =>   CDf =  0.00405    CDp =  0.01707

 Side 1  free  transition at x/c =  0.0065   29
 Side 2 forced transition at x/c =  1.0000   61

   5   rms: 0.1593E-04   max: 0.3845E-03   D at    2  2
       a = 18.000      CL =  1.8099
      Cm =  0.0243     CD =  0.02111   =>   CDf =  0.00405    CDp =  0.01707
      9.000    4.4247   0.021114   0.018763   0.000551  -0.018212    0.0065     #

 Point added to stored polar  1
 Save file unspecified or not available
 Dump file unspecified or not available

.OPERva   c>  
.OPERva   c>  
.OPERva   c>   Calculating wake trajectory ...
 Calculating source influence matrix ...

 Solving BL system ...

 Side 1  free  transition at x/c =  0.0065   29
 Side 2 forced transition at x/c =  1.0000   61

   1   rms: 0.2285E+00   max: 0.2541E+01   D at    2  2   RLX: 0.205
       a = 19.000      CL =  1.8187
      Cm =  0.0255     CD =  0.02182   =>   CDf =  0.00375    CDp =  0.01807

 Side 1  free  transition at x/c =  0.0064   30
 Side 2 forced transition at x/c =  1.0000   60

   2   rms: 0.1072E+00   max: -.2997E+00   C at   60  2
       a = 19.000      CL =  1.8536
      Cm =  0.0299     CD =  0.02476   =>   CDf =  0.00402    CDp =  0.02074

 Side 1  free  transition at x/c =  0.0062   30
 Side 2 forced transition at x/c =  1.0000   60

   3   rms: 0.1635E-01   max: 0.1546E+00   D at   94  1
       a = 19.000      CL =  1.8454
      Cm =  0.0299     CD =  0.02538   =>   CDf =  0.00392    CDp =  0.02145

 Side 1  free  transition at x/c =  0.0062   30
 Side 2 forced transition at x/c =  1.0000   60

   4   rms: 0.2649E-02   max: 0.4647E-01   D at   92  1
       a = 19.000      CL =  1.8457
      Cm =  0.0298     CD =  0.02534   =>   CDf =  0.00390    CDp =  0.02144

 Side 1  free  transition at x/c =  0.0062   30
 Side 2 forced transition at x/c =  1.0000   60

   5   rms: 0.4846E-03   max: -.5976E-02   D at   92  1
       a = 19.000      CL =  1.8460
      Cm =  0.0298     CD =  0.02533   =>   CDf =  0.00390    CDp =  0.02142

 Side 1  free  transition at x/c =  0.0062   30
 Side 2 forced transition at x/c =  1.0000   60

   6   rms: 0.1644E-04   max: -.1123E-03   D at   92  1
       a = 19.000      CL =  1.8460
      Cm =  0.0298     CD =  0.02533   =>   CDf =  0.00390    CDp =  0.02143
      9.000    5.6879   0.025328   0.018762   0.000582  -0.018181    0.0062     #

 Point added to stored polar  1
 Save file unspecified or not available
 Dump file unspecified or not available

.OPERva   c>  
.OPERva   c>  
.OPERva   c>   Calculating wake trajectory ...
 Calculating source influence matrix ...

 Solving BL system ...

 Side 1  free  transition at x/c =  0.0062   30
 Side 2 forced transition at x/c =  1.0000   60

   1   rms: 0.1399E+00   max: 0.4277E+00   D at   89  1
       a = 20.000      CL =  1.8773
      Cm =  0.0333     CD =  0.03101   =>   CDf =  0.00360    CDp =  0.02741

 Side 1  free  transition at x/c =  0.0058   31
 Side 2 forced transition at x/c =  1.0000   59

   2   rms: 0.3990E-01   max: -.3362E+00   T at    2  1
       a = 20.000      CL =  1.8616
      Cm =  0.0326     CD =  0.03259   =>   CDf =  0.00409    CDp =  0.02850

 Side 1  free  transition at x/c =  0.0058   30
 Side 2 forced transition at x/c =  1.0000   60

   3   rms: 0.7223E-02   max: -.8814E-01   D at   89  1
       a = 20.000      CL =  1.8626
      Cm =  0.0324     CD =  0.03249   =>   CDf =  0.00372    CDp =  0.02877

 Side 1  free  transition at x/c =  0.0058   30
 Side 2 forced transition at x/c =  1.0000   60

   4   rms: 0.1021E-02   max: -.1614E-01   D at   86  1
       a = 20.000      CL =  1.8626
      Cm =  0.0325     CD =  0.03241   =>   CDf =  0.00372    CDp =  0.02869

 Side 1  free  transition at x/c =  0.0058   30
 Side 2 forced transition at x/c =  1.0000   60

   5   rms: 0.8392E-04   max: -.4818E-03   D at   70  2
       a = 20.000      CL =  1.8627
      Cm =  0.0325     CD =  0.03241   =>   CDf =  0.00372    CDp =  0.02869
      9.000    7.1623   0.032411   0.018275   0.000612  -0.017664    0.0058     #

 Point added to stored polar  1
 Save file unspecified or not available
 Dump file unspecified or not available

.OPERva   c>  
.OPERva   c>  
.OPERva   c>   Calculating wake trajectory ...
 Calculating source influence matrix ...

 Solving BL system ...

 Side 1  free  transition at x/c =  0.0058   30
 Side 2 forced transition at x/c =  1.0000   60

   1   rms: 0.1474E+00   max: 0.5152E+00   D at   83  1   RLX: 0.833
       a = 21.000      CL =  1.8775
      Cm =  0.0324     CD =  0.03994   =>   CDf =  0.00340    CDp =  0.03654

 Side 1  free  transition at x/c =  0.0055   31
 Side 2 forced transition at x/c =  1.0000   59

   2   rms: 0.6467E-01   max: 0.4615E+00   D at   83  1
       a = 21.000      CL =  1.8574
      Cm =  0.0305     CD =  0.04444   =>   CDf =  0.00357    CDp =  0.04087

 Side 1  free  transition at x/c =  0.0054   31
 Side 2 forced transition at x/c =  1.0000   59

   3   rms: 0.1920E-01   max: 0.1760E+00   D at   80  1
       a = 21.000      CL =  1.8511
      Cm =  0.0304     CD =  0.04459   =>   CDf =  0.00348    CDp =  0.04111

 Side 1  free  transition at x/c =  0.0054   31
 Side 2 forced transition at x/c =  1.0000   59

   4   rms: 0.2495E-02   max: -.4584E-01   D at   80  1
       a = 21.000      CL =  1.8505
      Cm =  0.0307     CD =  0.04433   =>   CDf =  0.00346    CDp =  0.04087

 Side 1  free  transition at x/c =  0.0054   31
 Side 2 forced transition at x/c =  1.0000   59

   5   rms: 0.3897E-03   max: -.2081E-02   D at   80  1
       a = 21.000      CL =  1.8507
      Cm =  0.0307     CD =  0.04431   =>   CDf =  0.00346    CDp =  0.04086

 Side 1  free  transition at x/c =  0.0054   31
 Side 2 forced transition at x/c =  1.0000   59

   6   rms: 0.3930E-04   max: -.1748E-03   D at   71  2
       a = 21.000      CL =  1.8507
      Cm =  0.0307     CD =  0.04432   =>   CDf =  0.00346    CDp =  0.04086
      9.000    8.5959   0.044315   0.017013   0.000641  -0.016372    0.0054     #

 Point added to stored polar  1
 Save file unspecified or not available
 Dump file unspecified or not available

.OPERva   c>  
.OPERva   c>  
.OPERva   c>   Calculating wake trajectory ...
 Calculating source influence matrix ...

 Solving BL system ...

 Side 1  free  transition at x/c =  0.0054   31
 Side 2 forced transition at x/c =  1.0000   59

   1   rms: 0.1674E+00   max: 0.7022E+00   D at   77  1   RLX: 0.665
       a = 22.000      CL =  1.8436
      Cm =  0.0270     CD =  0.05473   =>   CDf =  0.00346    CDp =  0.05127

 Side 1  free  transition at x/c =  0.0052   31
 Side 2 forced transition at x/c =  1.0000   59

   2   rms: 0.1286E+00   max: 0.7893E+00   D at   76  1
       a = 22.000      CL =  1.7981
      Cm =  0.0210     CD =  0.06655   =>   CDf =  0.00330    CDp =  0.06325

 Side 1  free  transition at x/c =  0.0052   31
 Side 2 forced transition at x/c =  1.0000   59

   3   rms: 0.3476E-01   max: 0.3197E+00   D at   71  1
       a = 22.000      CL =  1.7870
      Cm =  0.0222     CD =  0.06545   =>   CDf =  0.00311    CDp =  0.06234

 Side 1  free  transition at x/c =  0.0052   31
 Side 2 forced transition at x/c =  1.0000   59

   4   rms: 0.5423E-02   max: -.7118E-01   D at   72  1
       a = 22.000      CL =  1.7886
      Cm =  0.0226     CD =  0.06463   =>   CDf =  0.00308    CDp =  0.06155

 Side 1  free  transition at x/c =  0.0052   31
 Side 2 forced transition at x/c =  1.0000   59

   5   rms: 0.1409E-02   max: -.9465E-02   D at   70  1
       a = 22.000      CL =  1.7894
      Cm =  0.0227     CD =  0.06451   =>   CDf =  0.00309    CDp =  0.06143

 Side 1  free  transition at x/c =  0.0052   31
 Side 2 forced transition at x/c =  1.0000   59

   6   rms: 0.2638E-03   max: -.8918E-03   D at   72  2
       a = 22.000      CL =  1.7896
      Cm =  0.0227     CD =  0.06451   =>   CDf =  0.00309    CDp =  0.06143

 Side 1  free  transition at x/c =  0.0052   31
 Side 2 forced transition at x/c =  1.0000   59

   7   rms: 0.3140E-04   max: -.1320E-03   D at   72  2
       a = 22.000      CL =  1.7896
      Cm =  0.0227     CD =  0.06452   =>   CDf =  0.00309    CDp =  0.06143
      9.000    9.7961   0.064516   0.014725   0.000659  -0.014066    0.0052     #

 Point added to stored polar  1
 Save file unspecified or not available
 Dump file unspecified or not available

.OPERva   c>  
.OPERva   c>  
.OPERva   c>   Calculating wake trajectory ...
 Calculating source influence matrix ...

 Solving BL system ...

 Side 1  free  transition at x/c =  0.0052   31
 Side 2 forced transition at x/c =  1.0000   59

   1   rms: 0.1996E+00   max: 0.9729E+00   D at   68  1   RLX: 0.518
       a = 23.000      CL =  1.7625
      Cm =  0.0161     CD =  0.07846   =>   CDf =  0.00310    CDp =  0.07536

 Side 1  free  transition at x/c =  0.0051   31
 Side 2 forced transition at x/c =  1.0000   59

   2   rms: 0.1836E+00   max: 0.1182E+01   D at   67  1   RLX: 0.771
       a = 23.000      CL =  1.7019
      Cm =  0.0074     CD =  0.09461   =>   CDf =  0.00292    CDp =  0.09169

 Side 1  free  transition at x/c =  0.0051   31
 Side 2 forced transition at x/c =  1.0000   59

   3   rms: 0.1125E+00   max: 0.7999E+00   D at   64  1
       a = 23.000      CL =  1.6534
      Cm =  0.0040     CD =  0.10343   =>   CDf =  0.00271    CDp =  0.10072

 Side 1  free  transition at x/c =  0.0052   31
 Side 2 forced transition at x/c =  1.0000   59

   4   rms: 0.2592E-01   max: -.2146E+00   D at   63  1
       a = 23.000      CL =  1.6469
      Cm =  0.0055     CD =  0.09994   =>   CDf =  0.00257    CDp =  0.09737

 Side 1  free  transition at x/c =  0.0052   31
 Side 2 forced transition at x/c =  1.0000   59

   5   rms: 0.6695E-02   max: -.4685E-01   D at   61  1
       a = 23.000      CL =  1.6508
      Cm =  0.0061     CD =  0.09810   =>   CDf =  0.00257    CDp =  0.09553

 Side 1  free  transition at x/c =  0.0052   31
 Side 2 forced transition at x/c =  1.0000   59

   6   rms: 0.7727E-03   max: 0.4660E-02   C at   59  2
       a = 23.000      CL =  1.6514
      Cm =  0.0061     CD =  0.09817   =>   CDf =  0.00258    CDp =  0.09559

 Side 1  free  transition at x/c =  0.0052   31
 Side 2 forced transition at x/c =  1.0000   59

   7   rms: 0.4308E-04   max: -.3040E-03   D at   74  2
       a = 23.000      CL =  1.6514
      Cm =  0.0061     CD =  0.09819   =>   CDf =  0.00258    CDp =  0.09561
      9.000   10.9821   0.098191   0.011277   0.000638  -0.010639    0.0052     #

 Point added to stored polar  1
 Save file unspecified or not available
 Dump file unspecified or not available

.OPERva   c>  
.OPERva   c>  
.OPERva   c>   Calculating wake trajectory ...
 Calculating source influence matrix ...

 Solving BL system ...

 Side 1  free  transition at x/c =  0.0052   31
 Side 2 forced transition at x/c =  1.0000   59

   1   rms: 0.1970E+00   max: 0.1077E+01   D at   59  1   RLX: 0.403
       a = 24.000      CL =  1.6191
      Cm = -0.0008     CD =  0.11313   =>   CDf =  0.00259    CDp =  0.11055

 Side 1  free  transition at x/c =  0.0051   31
 Side 2 forced transition at x/c =  1.0000   59

   2   rms: 0.2547E+00   max: 0.1675E+01   D at   58  1   RLX: 0.542
       a = 24.000      CL =  1.5554
      Cm = -0.0119     CD =  0.13183   =>   CDf =  0.00245    CDp =  0.12938

 Side 1  free  transition at x/c =  0.0052   31
 Side 2 forced transition at x/c =  1.0000   59

   3   rms: 0.5778E+00   max: 0.3876E+01   D at   56  1   RLX: 0.285
       a = 24.000      CL =  1.4730
      Cm = -0.0210     CD =  0.14695   =>   CDf =  0.00253    CDp =  0.14442

 Side 1  free  transition at x/c =  0.0054   30
 Side 2 forced transition at x/c =  1.0000   60

   4   rms: 0.1837E+00   max: 0.1494E+01   D at   52  1   RLX: 0.590
       a = 24.000      CL =  1.4212
      Cm = -0.0229     CD =  0.15465   =>   CDf =  0.00204    CDp =  0.15261

 Side 1  free  transition at x/c =  0.0055   30
 Side 2 forced transition at x/c =  1.0000   60

   5   rms: 0.4745E-01   max: 0.4290E+00   D at   50  1
       a = 24.000      CL =  1.4234
      Cm = -0.0262     CD =  0.15661   =>   CDf =  0.00192    CDp =  0.15469

 Side 1  free  transition at x/c =  0.0054   30
 Side 2 forced transition at x/c =  1.0000   60

   6   rms: 0.6627E-01   max: -.3687E+00   D at   48  1
       a = 24.000      CL =  1.4555
      Cm = -0.0202     CD =  0.14176   =>   CDf =  0.00189    CDp =  0.13987

 Side 1  free  transition at x/c =  0.0054   30
 Side 2 forced transition at x/c =  1.0000   60

   7   rms: 0.1786E-01   max: 0.1299E+00   D at   50  1
       a = 24.000      CL =  1.4499
      Cm = -0.0222     CD =  0.14636   =>   CDf =  0.00199    CDp =  0.14437

 Side 1  free  transition at x/c =  0.0054   30
 Side 2 forced transition at x/c =  1.0000   60

   8   rms: 0.8678E+00   max: -.5168E+01   D at   50  1   RLX: 0.097
       a = 24.000      CL =  1.4932
      Cm = -0.0161     CD =  0.13379   =>   CDf =  0.00196    CDp =  0.13183

 Side 1  free  transition at x/c =  0.0052   30
 Side 2 forced transition at x/c =  1.0000   60

   9   rms: 0.5181E-01   max: 0.3747E+00   D at   51  1
       a = 24.000      CL =  1.4691
      Cm = -0.0203     CD =  0.14441   =>   CDf =  0.00210    CDp =  0.14231

 Side 1  free  transition at x/c =  0.0053   30
 Side 2 forced transition at x/c =  1.0000   60

  10   rms: 0.7608E+00   max: 0.4735E+01   D at   51  1   RLX: 0.236
       a = 24.000      CL =  1.3857
      Cm = -0.0345     CD =  0.17075   =>   CDf =  0.00201    CDp =  0.16874

 Side 1  free  transition at x/c =  0.0056   30
 Side 2 forced transition at x/c =  1.0000   60

  11   rms: 0.5157E-01   max: -.4431E+00   D at   51  1
       a = 24.000      CL =  1.4049
      Cm = -0.0277     CD =  0.15529   =>   CDf =  0.00179    CDp =  0.15350

 Side 1  free  transition at x/c =  0.0055   30
 Side 2 forced transition at x/c =  1.0000   60

  12   rms: 0.2967E-01   max: 0.1281E+00   C at   60  2
       a = 24.000      CL =  1.4212
      Cm = -0.0250     CD =  0.14920   =>   CDf =  0.00185    CDp =  0.14735

 Side 1  free  transition at x/c =  0.0055   30
 Side 2 forced transition at x/c =  1.0000   60

  13   rms: 0.1595E-01   max: 0.1063E+00   D at   49  1
       a = 24.000      CL =  1.4159
      Cm = -0.0266     CD =  0.15340   =>   CDf =  0.00189    CDp =  0.15151

 Side 1  free  transition at x/c =  0.0055   30
 Side 2 forced transition at x/c =  1.0000   60

  14   rms: 0.1064E-01   max: -.8347E-01   D at   49  1
       a = 24.000      CL =  1.4201
      Cm = -0.0256     CD =  0.15135   =>   CDf =  0.00187    CDp =  0.14948

 Side 1  free  transition at x/c =  0.0055   30
 Side 2 forced transition at x/c =  1.0000   60

  15   rms: 0.2248E-01   max: -.1365E+00   D at   49  1
       a = 24.000      CL =  1.4312
      Cm = -0.0240     CD =  0.14827   =>   CDf =  0.00188    CDp =  0.14638

 Side 1  free  transition at x/c =  0.0054   30
 Side 2 forced transition at x/c =  1.0000   60

  16   rms: 0.4730E-02   max: 0.3314E-01   C at   60  2
       a = 24.000      CL =  1.4343
      Cm = -0.0239     CD =  0.14870   =>   CDf =  0.00192    CDp =  0.14678

 Side 1  free  transition at x/c =  0.0054   30
 Side 2 forced transition at x/c =  1.0000   60

  17   rms: 0.5821E-03   max: 0.3511E-02   C at   60  2
       a = 24.000      CL =  1.4346
      Cm = -0.0239     CD =  0.14902   =>   CDf =  0.00192    CDp =  0.14709

 Side 1  free  transition at x/c =  0.0054   30
 Side 2 forced transition at x/c =  1.0000   60

  18   rms: 0.2468E-04   max: -.2302E-03   D at   78  2
       a = 24.000      CL =  1.4346
      Cm = -0.0239     CD =  0.14905   =>   CDf =  0.00192    CDp =  0.14712
      9.000   12.5621   0.149047   0.007008   0.000565  -0.006443    0.0054     #

 Point added to stored polar  1
 Save file unspecified or not available
 Dump file unspecified or not available

.OPERva   c>  
.OPERva   c>  
.OPERva   c>   Calculating wake trajectory ...
 Calculating source influence matrix ...

 Solving BL system ...

 Side 1  free  transition at x/c =  0.0054   30
 Side 2 forced transition at x/c =  1.0000   60

   1   rms: 0.2172E+00   max: 0.1439E+01   D at   49  1   RLX: 0.319
       a = 25.000      CL =  1.4070
      Cm = -0.0319     CD =  0.16491   =>   CDf =  0.00193    CDp =  0.16298

 Side 1  free  transition at x/c =  0.0053   30
 Side 2 forced transition at x/c =  1.0000   60

   2   rms: 0.2162E+00   max: 0.1548E+01   D at   48  1   RLX: 0.525
       a = 25.000      CL =  1.3659
      Cm = -0.0436     CD =  0.18230   =>   CDf =  0.00183    CDp =  0.18048

 Side 1  free  transition at x/c =  0.0053   30
 Side 2 forced transition at x/c =  1.0000   60

   3   rms: 0.1395E+00   max: 0.1225E+01   D at   47  1   RLX: 0.468
       a = 25.000      CL =  1.3441
      Cm = -0.0472     CD =  0.18324   =>   CDf =  0.00168    CDp =  0.18156

 Side 1  free  transition at x/c =  0.0053   30
 Side 2 forced transition at x/c =  1.0000   60

   4   rms: 0.8361E+00   max: 0.6301E+01   D at   46  1   RLX: 0.134
       a = 25.000      CL =  1.3053
      Cm = -0.0557     CD =  0.19257   =>   CDf =  0.00160    CDp =  0.19097

 Side 1  free  transition at x/c =  0.0054   30
 Side 2 forced transition at x/c =  1.0000   60

   5   rms: 0.1075E+01   max: 0.8440E+01   D at   45  1   RLX: 0.096
       a = 25.000      CL =  1.2489
      Cm = -0.0570     CD =  0.19903   =>   CDf =  0.00168    CDp =  0.19735

 Side 1  free  transition at x/c =  0.0054   29
 Side 2 forced transition at x/c =  1.0000   61

   6   rms: 0.1310E+00   max: -.7101E+00   D at   42  1   RLX: 0.704
       a = 25.000      CL =  1.2859
      Cm = -0.0518     CD =  0.18871   =>   CDf =  0.00119    CDp =  0.18752

 Side 1  free  transition at x/c =  0.0053   30
 Side 2 forced transition at x/c =  1.0000   60

   7   rms: 0.1167E+00   max: 0.9318E+00   D at   45  1   RLX: 0.965
       a = 25.000      CL =  1.2587
      Cm = -0.0638     CD =  0.21015   =>   CDf =  0.00168    CDp =  0.20847

 Side 1  free  transition at x/c =  0.0054   29
 Side 2 forced transition at x/c =  1.0000   61

   8   rms: 0.1283E+00   max: 0.1180E+01   D at   43  1   RLX: 0.680
       a = 25.000      CL =  1.2299
      Cm = -0.0672     CD =  0.21492   =>   CDf =  0.00136    CDp =  0.21356

 Side 1  free  transition at x/c =  0.0054   29
 Side 2 forced transition at x/c =  1.0000   61

   9   rms: 0.8057E-01   max: 0.8033E+00   D at   42  1   RLX: 0.644
       a = 25.000      CL =  1.2132
      Cm = -0.0685     CD =  0.21571   =>   CDf =  0.00128    CDp =  0.21443

 Side 1  free  transition at x/c =  0.0054   29
 Side 2 forced transition at x/c =  1.0000   61

  10   rms: 0.2750E-01   max: -.2249E+00   C at   61  2
       a = 25.000      CL =  1.2258
      Cm = -0.0681     CD =  0.21111   =>   CDf =  0.00123    CDp =  0.20988

 Side 1  free  transition at x/c =  0.0054   29
 Side 2 forced transition at x/c =  1.0000   61

  11   rms: 0.2155E-02   max: 0.1511E-01   C at   61  2
       a = 25.000      CL =  1.2262
      Cm = -0.0679     CD =  0.20927   =>   CDf =  0.00126    CDp =  0.20800

 Side 1  free  transition at x/c =  0.0054   29
 Side 2 forced transition at x/c =  1.0000   61

  12   rms: 0.1190E-02   max: 0.1345E-01   C at   61  2
       a = 25.000      CL =  1.2267
      Cm = -0.0679     CD =  0.20940   =>   CDf =  0.00126    CDp =  0.20814

 Side 1  free  transition at x/c =  0.0054   29
 Side 2 forced transition at x/c =  1.0000   61

  13   rms: 0.1595E-03   max: 0.2341E-02   C at   61  2
       a = 25.000      CL =  1.2268
      Cm = -0.0679     CD =  0.20950   =>   CDf =  0.00126    CDp =  0.20823

 Side 1  free  transition at x/c =  0.0054   29
 Side 2 forced transition at x/c =  1.0000   61

  14   rms: 0.1693E-04   max: 0.2231E-03   C at   61  2
       a = 25.000      CL =  1.2268
      Cm = -0.0679     CD =  0.20951   =>   CDf =  0.00126    CDp =  0.20825
      9.000   14.7014   0.209513   0.003427   0.000480  -0.002947    0.0054     #

 Point added to stored polar  1
 Save file unspecified or not available
 Dump file unspecified or not available

.OPERva   c>  
.OPERva   c>  
.OPERva   c>   Calculating wake trajectory ...
 Calculating source influence matrix ...

 Solving BL system ...

 Side 1  free  transition at x/c =  0.0054   29
 Side 2 forced transition at x/c =  1.0000   61

   1   rms: 0.2154E+00   max: -.1364E+01   D at   41  1   RLX: 0.291
       a = 26.000      CL =  1.2487
      Cm = -0.0669     CD =  0.20643   =>   CDf =  0.00127    CDp =  0.20515

 Side 1  free  transition at x/c =  0.0053   29
 Side 2 forced transition at x/c =  1.0000   61

   2   rms: 0.4478E+00   max: -.3174E+01   D at   42  1   RLX: 0.158
       a = 26.000      CL =  1.3127
      Cm = -0.0738     CD =  0.20062   =>   CDf =  0.00115    CDp =  0.19946

 Side 1  free  transition at x/c =  0.0052   30
 Side 2 forced transition at x/c =  1.0000   60

   3   rms: 0.1849E+00   max: 0.1626E+01   D at   43  1   RLX: 0.922
       a = 26.000      CL =  1.2416
      Cm = -0.0832     CD =  0.23705   =>   CDf =  0.00140    CDp =  0.23565

 Side 1  free  transition at x/c =  0.0050   29
 Side 2 forced transition at x/c =  1.0000   60

   4   rms: 0.8340E-01   max: 0.1514E+01   D at   43  1   RLX: 0.788
       a = 26.000      CL =  1.2319
      Cm = -0.0799     CD =  0.22986   =>   CDf =  0.00122    CDp =  0.22864

 Side 1  free  transition at x/c =  0.0050   29
 Side 2 forced transition at x/c =  1.0000   60

   5   rms: 0.5082E+01   max: -.3898E+02   D at   41  1   RLX: 0.013
       a = 26.000      CL =  1.2716
      Cm = -0.0808     CD =  0.21072   =>   CDf =  0.00118    CDp =  0.20954

 Side 1  free  transition at x/c =  0.0050   29
 Side 2 forced transition at x/c =  1.0000   60

   6   rms: 0.2366E+00   max: 0.1981E+01   D at   42  1   RLX: 0.538
       a = 26.000      CL =  1.2349
      Cm = -0.0888     CD =  0.23886   =>   CDf =  0.00143    CDp =  0.23743

 Side 1  free  transition at x/c =  0.0050   28
 Side 2 forced transition at x/c =  1.0000   61

   7   rms: 0.1906E+00   max: 0.1724E+01   D at   40  1   RLX: 0.468
       a = 26.000      CL =  1.1998
      Cm = -0.0885     CD =  0.24104   =>   CDf =  0.00115    CDp =  0.23989

 Side 1  free  transition at x/c =  0.0050   28
 Side 2 forced transition at x/c =  1.0000   61

   8   rms: 0.1368E+00   max: 0.1175E+01   D at   39  1   RLX: 0.509
       a = 26.000      CL =  1.1790
      Cm = -0.0908     CD =  0.24523   =>   CDf =  0.00108    CDp =  0.24414

 Side 1  free  transition at x/c =  0.0050   28
 Side 2 forced transition at x/c =  1.0000   61

   9   rms: 0.6746E-01   max: -.6798E+00   C at   61  2   RLX: 0.736
       a = 26.000      CL =  1.1705
      Cm = -0.0937     CD =  0.24902   =>   CDf =  0.00103    CDp =  0.24799

 Side 1  free  transition at x/c =  0.0050   28
 Side 2 forced transition at x/c =  1.0000   61

  10   rms: 0.7227E-01   max: -.5047E+00   D at   37  1   RLX: 0.991
       a = 26.000      CL =  1.1861
      Cm = -0.0897     CD =  0.23548   =>   CDf =  0.00100    CDp =  0.23448

 Side 1  free  transition at x/c =  0.0050   28
 Side 2 forced transition at x/c =  1.0000   61

  11   rms: 0.1140E+01   max: -.9354E+01   D at   39  1   RLX: 0.053
       a = 26.000      CL =  1.2520
      Cm = -0.0996     CD =  0.23037   =>   CDf =  0.00107    CDp =  0.22931

 Side 1  free  transition at x/c =  0.0050   28
 Side 2 forced transition at x/c =  1.0000   61

  12   rms: 0.6365E-01   max: 0.5128E+00   D at   39  1
       a = 26.000      CL =  1.1914
      Cm = -0.0886     CD =  0.23110   =>   CDf =  0.00113    CDp =  0.22997

 Side 1  free  transition at x/c =  0.0050   28
 Side 2 forced transition at x/c =  1.0000   61

  13   rms: 0.8280E-01   max: 0.9104E+00   D at   39  1
       a = 26.000      CL =  1.1747
      Cm = -0.0936     CD =  0.24718   =>   CDf =  0.00108    CDp =  0.24610

 Side 1  free  transition at x/c =  0.0050   28
 Side 2 forced transition at x/c =  1.0000   61

  14   rms: 0.2444E-01   max: 0.3270E+00   D at   38  1
       a = 26.000      CL =  1.1708
      Cm = -0.0940     CD =  0.24688   =>   CDf =  0.00102    CDp =  0.24586

 Side 1  free  transition at x/c =  0.0050   28
 Side 2 forced transition at x/c =  1.0000   61

  15   rms: 0.1790E+00   max: -.1419E+01   D at   38  1   RLX: 0.352
       a = 26.000      CL =  1.1882
      Cm = -0.0914     CD =  0.23292   =>   CDf =  0.00100    CDp =  0.23192

 Side 1  free  transition at x/c =  0.0050   28
 Side 2 forced transition at x/c =  1.0000   61

  16   rms: 0.7192E-01   max: 0.5935E+00   D at   39  1
       a = 26.000      CL =  1.1689
      Cm = -0.0944     CD =  0.24556   =>   CDf =  0.00106    CDp =  0.24450

 Side 1  free  transition at x/c =  0.0050   28
 Side 2 forced transition at x/c =  1.0000   61

  17   rms: 0.8335E-01   max: 0.9534E+00   D at   38  1
       a = 26.000      CL =  1.1533
      Cm = -0.0984     CD =  0.25689   =>   CDf =  0.00100    CDp =  0.25589

 Side 1  free  transition at x/c =  0.0050   28
 Side 2 forced transition at x/c =  1.0000   61

  18   rms: 0.3357E-01   max: -.2341E+00   C at   61  2
       a = 26.000      CL =  1.1583
      Cm = -0.0962     CD =  0.24829   =>   CDf =  0.00095    CDp =  0.24735

 Side 1  free  transition at x/c =  0.0050   28
 Side 2 forced transition at x/c =  1.0000   61

  19   rms: 0.3347E-02   max: -.1351E-01   D at   38  1
       a = 26.000      CL =  1.1592
      Cm = -0.0960     CD =  0.24580   =>   CDf =  0.00097    CDp =  0.24483

 Side 1  free  transition at x/c =  0.0050   28
 Side 2 forced transition at x/c =  1.0000   61

  20   rms: 0.5609E-03   max: 0.1047E-01   C at   61  2
       a = 26.000      CL =  1.1594
      Cm = -0.0960     CD =  0.24601   =>   CDf =  0.00097    CDp =  0.24504

 MRCHDU: Convergence failed at  28  side 1    Res =  0.6301E-05
 Side 1  free  transition at x/c =  0.0050   28
 Side 2 forced transition at x/c =  1.0000   61

  21   rms: 0.5623E-04   max: 0.7554E-03   C at   61  2
       a = 26.000      CL =  1.1594
      Cm = -0.0960     CD =  0.24610   =>   CDf =  0.00097    CDp =  0.24513
      9.000   16.4715   0.246105   0.002159   0.000465  -0.001694    0.0050     #

 Point added to stored polar  1
 Save file unspecified or not available
 Dump file unspecified or not available

.OPERva   c>  
.OPERva   c>  
.OPERva   c>   Calculating wake trajectory ...
 Calculating source influence matrix ...

 Solving BL system ...

 Side 1  free  transition at x/c =  0.0050   28
 Side 2 forced transition at x/c =  1.0000   61

   1   rms: 0.1006E+00   max: 0.8675E+00   D at   37  1   RLX: 0.254
       a = 27.000      CL =  1.1583
      Cm = -0.0998     CD =  0.25415   =>   CDf =  0.00098    CDp =  0.25318

 Side 1  free  transition at x/c =  0.0050   28
 Side 2 forced transition at x/c =  1.0000   61

   2   rms: 0.1472E+00   max: 0.1423E+01   D at   37  1   RLX: 0.505
       a = 27.000      CL =  1.1570
      Cm = -0.1074     CD =  0.26809   =>   CDf =  0.00095    CDp =  0.26714

 Side 1  free  transition at x/c =  0.0050   28
 Side 2 forced transition at x/c =  1.0000   61

   3   rms: 0.4029E-01   max: -.6062E+00   C at   61  2   RLX: 0.825
       a = 27.000      CL =  1.1615
      Cm = -0.1097     CD =  0.26937   =>   CDf =  0.00089    CDp =  0.26847

 Side 1  free  transition at x/c =  0.0049   28
 Side 2 forced transition at x/c =  1.0000   61

   4   rms: 0.3370E-01   max: 0.3401E+00   D at   36  1
       a = 27.000      CL =  1.1593
      Cm = -0.1122     CD =  0.27036   =>   CDf =  0.00088    CDp =  0.26948

 Side 1  free  transition at x/c =  0.0049   28
 Side 2 forced transition at x/c =  1.0000   61

   5   rms: 0.3390E-01   max: 0.3312E+00   D at   36  1
       a = 27.000      CL =  1.1533
      Cm = -0.1136     CD =  0.27110   =>   CDf =  0.00086    CDp =  0.27024

 Side 1  free  transition at x/c =  0.0049   28
 Side 2 forced transition at x/c =  1.0000   61

   6   rms: 0.1449E-01   max: -.1247E+00   D at   36  1
       a = 27.000      CL =  1.1548
      Cm = -0.1128     CD =  0.26741   =>   CDf =  0.00084    CDp =  0.26658

 Side 1  free  transition at x/c =  0.0049   28
 Side 2 forced transition at x/c =  1.0000   61

   7   rms: 0.7754E-03   max: 0.8856E-02   C at   61  2
       a = 27.000      CL =  1.1549
      Cm = -0.1127     CD =  0.26661   =>   CDf =  0.00085    CDp =  0.26577

 Side 1  free  transition at x/c =  0.0049   28
 Side 2 forced transition at x/c =  1.0000   61

   8   rms: 0.1728E-03   max: 0.3337E-02   C at   61  2
       a = 27.000      CL =  1.1550
      Cm = -0.1128     CD =  0.26676   =>   CDf =  0.00085    CDp =  0.26592

 Side 1  free  transition at x/c =  0.0049   28
 Side 2 forced transition at x/c =  1.0000   61

   9   rms: 0.8430E-05   max: -.7683E-04   D at   83  2
       a = 27.000      CL =  1.1550
      Cm = -0.1128     CD =  0.26679   =>   CDf =  0.00085    CDp =  0.26594
      9.000   17.7230   0.266786   0.001731   0.000444  -0.001287    0.0049     #

 Point added to stored polar  1
 Save file unspecified or not available
 Dump file unspecified or not available

.OPERva   c>  
.OPERva   c>  
.OPERva   c>   Calculating wake trajectory ...
 Calculating source influence matrix ...

 Solving BL system ...

 Side 1  free  transition at x/c =  0.0049   28
 Side 2 forced transition at x/c =  1.0000   61

   1   rms: 0.7893E-01   max: -.7001E+00   C at   61  2   RLX: 0.241
       a = 28.000      CL =  1.1552
      Cm = -0.1159     CD =  0.27351   =>   CDf =  0.00085    CDp =  0.27266

 Side 1  free  transition at x/c =  0.0048   28
 Side 2 forced transition at x/c =  1.0000   61

   2   rms: 0.6801E-01   max: -.6519E+00   C at   61  2   RLX: 0.767
       a = 28.000      CL =  1.1694
      Cm = -0.1238     CD =  0.28838   =>   CDf =  0.00084    CDp =  0.28754

 Side 1  free  transition at x/c =  0.0046   28
 Side 2 forced transition at x/c =  1.0000   61

   3   rms: 0.7958E-01   max: 0.8895E+00   D at   35  1   RLX: 0.878
       a = 28.000      CL =  1.1634
      Cm = -0.1278     CD =  0.29325   =>   CDf =  0.00080    CDp =  0.29245

 Side 1  free  transition at x/c =  0.0045   28
 Side 2 forced transition at x/c =  1.0000   61

   4   rms: 0.1584E-01   max: -.3030E+00   C at   61  2
       a = 28.000      CL =  1.1632
      Cm = -0.1274     CD =  0.28783   =>   CDf =  0.00077    CDp =  0.28705

 Side 1  free  transition at x/c =  0.0045   28
 Side 2 forced transition at x/c =  1.0000   61

   5   rms: 0.3449E-02   max: -.4910E-01   C at   61  2
       a = 28.000      CL =  1.1624
      Cm = -0.1274     CD =  0.28446   =>   CDf =  0.00077    CDp =  0.28369

 Side 1  free  transition at x/c =  0.0045   28
 Side 2 forced transition at x/c =  1.0000   61

   6   rms: 0.4066E-03   max: -.5706E-02   C at   61  2
       a = 28.000      CL =  1.1623
      Cm = -0.1274     CD =  0.28405   =>   CDf =  0.00077    CDp =  0.28328

 Side 1  free  transition at x/c =  0.0045   28
 Side 2 forced transition at x/c =  1.0000   61

   7   rms: 0.5315E-04   max: -.9851E-03   C at   61  2
       a = 28.000      CL =  1.1623
      Cm = -0.1274     CD =  0.28399   =>   CDf =  0.00077    CDp =  0.28322
      9.000   18.8999   0.283988   0.001550   0.000422  -0.001128    0.0045     #

 Point added to stored polar  1
 Save file unspecified or not available
 Dump file unspecified or not available

.OPERva   c>  
.OPERva   c>  
.OPERva   c>   Calculating wake trajectory ...
 Calculating source influence matrix ...

 Solving BL system ...

 Side 1  free  transition at x/c =  0.0045   28
 Side 2 forced transition at x/c =  1.0000   61

   1   rms: 0.1322E+00   max: 0.1315E+01   D at   34  1   RLX: 0.229
       a = 29.000      CL =  1.1598
      Cm = -0.1310     CD =  0.29280   =>   CDf =  0.00078    CDp =  0.29202

 Side 1  free  transition at x/c =  0.0043   28
 Side 2 forced transition at x/c =  1.0000   61

   2   rms: 0.1227E+00   max: -.7914E+00   D at   34  1   RLX: 0.632
       a = 29.000      CL =  1.1845
      Cm = -0.1332     CD =  0.28911   =>   CDf =  0.00067    CDp =  0.28844

 Side 1  free  transition at x/c =  0.0043   29
 Side 2 forced transition at x/c =  1.0000   60

   3   rms: 0.1812E+00   max: 0.1546E+01   D at   36  1   RLX: 0.937
       a = 29.000      CL =  1.1765
      Cm = -0.1442     CD =  0.31378   =>   CDf =  0.00091    CDp =  0.31287

 MRCHDU: Convergence failed at  33  side 1    Res =  0.2294E+01
 MRCHDU: Convergence failed at  34  side 1    Res =  0.5206E+01
 Side 1  free  transition at x/c =  0.0039   28
 Side 2 forced transition at x/c =  1.0000   61

   4   rms: 0.3722E+00   max: 0.5316E+01   D at    2  2   RLX: 0.200
       a = 29.000      CL =  1.4101
      Cm = -0.2007     CD =  0.29097   =>   CDf =  0.00067    CDp =  0.29030

 Side 1  free  transition at x/c =  0.0040   29
 Side 2 forced transition at x/c =  1.0000   60

   5   rms: 0.1746E+00   max: 0.9118E+00   C at   60  2
       a = 29.000      CL =  1.1892
      Cm = -0.1341     CD =  0.26742   =>   CDf =  0.00079    CDp =  0.26662

 Side 1  free  transition at x/c =  0.0043   29
 Side 2 forced transition at x/c =  1.0000   60

   6   rms: 0.4081E+00   max: 0.3598E+01   D at   36  1   RLX: 0.417
       a = 29.000      CL =  1.2273
      Cm = -0.1565     CD =  0.31192   =>   CDf =  0.00080    CDp =  0.31111

 Side 1  free  transition at x/c =  0.0040   29
 Side 2 forced transition at x/c =  1.0000   60

   7   rms: 0.8203E-01   max: -.6919E+00   D at   34  1   RLX: 0.723
       a = 29.000      CL =  1.1771
      Cm = -0.1374     CD =  0.29322   =>   CDf =  0.00074    CDp =  0.29248

 Side 1  free  transition at x/c =  0.0040   29
 Side 2 forced transition at x/c =  1.0000   60

   8   rms: 0.4697E-01   max: 0.7526E+00   D at   35  1
       a = 29.000      CL =  1.1781
      Cm = -0.1401     CD =  0.29611   =>   CDf =  0.00077    CDp =  0.29535

 Side 1  free  transition at x/c =  0.0038   29
 Side 2 forced transition at x/c =  1.0000   60

   9   rms: 0.9710E-01   max: 0.9135E+00   D at   35  1
       a = 29.000      CL =  1.1681
      Cm = -0.1437     CD =  0.31029   =>   CDf =  0.00085    CDp =  0.30944

 Side 1  free  transition at x/c =  0.0036   27
 Side 2 forced transition at x/c =  1.0000   61

  10   rms: 0.3925E-01   max: -.2998E+00   D at   32  1
       a = 29.000      CL =  1.1709
      Cm = -0.1421     CD =  0.30430   =>   CDf =  0.00061    CDp =  0.30369

 Side 1  free  transition at x/c =  0.0036   28
 Side 2 forced transition at x/c =  1.0000   60

  11   rms: 0.9823E-01   max: -.1191E+01   D at    2  1   RLX: 0.420
       a = 29.000      CL =  1.1720
      Cm = -0.1442     CD =  0.30454   =>   CDf =  0.00082    CDp =  0.30373

 Side 1  free  transition at x/c =  0.0036   27
 Side 2 forced transition at x/c =  1.0000   61

  12   rms: 0.7084E-01   max: 0.6406E+00   D at   33  1
       a = 29.000      CL =  1.1608
      Cm = -0.1453     CD =  0.31292   =>   CDf =  0.00071    CDp =  0.31221

 Side 1  free  transition at x/c =  0.0035   27
 Side 2 forced transition at x/c =  1.0000   61

  13   rms: 0.4211E-01   max: -.2952E+00   D at   33  1
       a = 29.000      CL =  1.1639
      Cm = -0.1439     CD =  0.30644   =>   CDf =  0.00068    CDp =  0.30576

 Side 1  free  transition at x/c =  0.0036   27
 Side 2 forced transition at x/c =  1.0000   61

  14   rms: 0.3043E-02   max: -.3545E-01   D at   32  1
       a = 29.000      CL =  1.1643
      Cm = -0.1437     CD =  0.30360   =>   CDf =  0.00070    CDp =  0.30291

 Side 1  free  transition at x/c =  0.0036   27
 Side 2 forced transition at x/c =  1.0000   61

  15   rms: 0.5029E-03   max: 0.9685E-02   C at   61  2
       a = 29.000      CL =  1.1644
      Cm = -0.1437     CD =  0.30397   =>   CDf =  0.00070    CDp =  0.30328

 Side 1  free  transition at x/c =  0.0036   27
 Side 2 forced transition at x/c =  1.0000   61

  16   rms: 0.3111E-04   max: -.2734E-03   D at   83  2
       a = 29.000      CL =  1.1644
      Cm = -0.1437     CD =  0.30407   =>   CDf =  0.00070    CDp =  0.30337
      9.000   20.4309   0.304065   0.001376   0.000472  -0.000905    0.0036     #

 Point added to stored polar  1
 Save file unspecified or not available
 Dump file unspecified or not available

.OPERva   c>  
.OPERva   c>  
.OPERva   c>   Calculating wake trajectory ...
 Calculating source influence matrix ...

 Solving BL system ...

 Side 1  free  transition at x/c =  0.0036   27
 Side 2 forced transition at x/c =  1.0000   61

   1   rms: 0.7292E-01   max: -.6513E+00   C at   61  2   RLX: 0.220
       a = 30.000      CL =  1.1632
      Cm = -0.1464     CD =  0.30995   =>   CDf =  0.00070    CDp =  0.30925

 Side 1  free  transition at x/c =  0.0035   27
 Side 2 forced transition at x/c =  1.0000   61

   2   rms: 0.6339E-01   max: -.6036E+00   C at   61  2   RLX: 0.828
       a = 30.000      CL =  1.1828
      Cm = -0.1546     CD =  0.32569   =>   CDf =  0.00060    CDp =  0.32509

 Side 1  free  transition at x/c =  0.0035   28
 Side 2 forced transition at x/c =  1.0000   60

   3   rms: 0.1110E+00   max: 0.1228E+01   D at   33  1   RLX: 0.826
       a = 30.000      CL =  1.1782
      Cm = -0.1583     CD =  0.33144   =>   CDf =  0.00066    CDp =  0.33078

 Side 1  free  transition at x/c =  0.0034   28
 Side 2 forced transition at x/c =  1.0000   60

   4   rms: 0.2180E-01   max: -.3743E+00   C at   60  2
       a = 30.000      CL =  1.1769
      Cm = -0.1578     CD =  0.32572   =>   CDf =  0.00063    CDp =  0.32509

 Side 1  free  transition at x/c =  0.0033   28
 Side 2 forced transition at x/c =  1.0000   60

   5   rms: 0.4489E-01   max: 0.4993E+00   D at   32  1
       a = 30.000      CL =  1.1732
      Cm = -0.1589     CD =  0.32567   =>   CDf =  0.00062    CDp =  0.32505

 Side 1  free  transition at x/c =  0.0033   28
 Side 2 forced transition at x/c =  1.0000   60

   6   rms: 0.4015E-01   max: -.2322E+00   D at   32  1
       a = 30.000      CL =  1.1758
      Cm = -0.1577     CD =  0.31901   =>   CDf =  0.00061    CDp =  0.31841

 Side 1  free  transition at x/c =  0.0034   28
 Side 2 forced transition at x/c =  1.0000   60

   7   rms: 0.2982E-01   max: 0.3656E+00   D at   32  1
       a = 30.000      CL =  1.1741
      Cm = -0.1584     CD =  0.32122   =>   CDf =  0.00062    CDp =  0.32060

 Side 1  free  transition at x/c =  0.0033   28
 Side 2 forced transition at x/c =  1.0000   60

   8   rms: 0.1078E+00   max: -.9572E+00   D at   32  1   RLX: 0.522
       a = 30.000      CL =  1.1795
      Cm = -0.1570     CD =  0.31458   =>   CDf =  0.00061    CDp =  0.31397

 Side 1  free  transition at x/c =  0.0034   28
 Side 2 forced transition at x/c =  1.0000   60

   9   rms: 0.5975E-01   max: 0.4981E+00   D at   32  1
       a = 30.000      CL =  1.1744
      Cm = -0.1583     CD =  0.32115   =>   CDf =  0.00064    CDp =  0.32051

 Side 1  free  transition at x/c =  0.0033   28
 Side 2 forced transition at x/c =  1.0000   60

  10   rms: 0.3527E-01   max: 0.5118E+00   D at   32  1
       a = 30.000      CL =  1.1727
      Cm = -0.1592     CD =  0.32752   =>   CDf =  0.00062    CDp =  0.32691

 Side 1  free  transition at x/c =  0.0032   28
 Side 2 forced transition at x/c =  1.0000   60

  11   rms: 0.1511E+00   max: -.1231E+01   D at   32  1   RLX: 0.397
       a = 30.000      CL =  1.1803
      Cm = -0.1585     CD =  0.31522   =>   CDf =  0.00060    CDp =  0.31461

 Side 1  free  transition at x/c =  0.0034   28
 Side 2 forced transition at x/c =  1.0000   60

  12   rms: 0.2359E-01   max: 0.2790E+00   D at   32  1
       a = 30.000      CL =  1.1754
      Cm = -0.1578     CD =  0.31848   =>   CDf =  0.00063    CDp =  0.31785

 Side 1  free  transition at x/c =  0.0033   28
 Side 2 forced transition at x/c =  1.0000   60

  13   rms: 0.6937E-01   max: 0.7638E+00   D at   32  1
       a = 30.000      CL =  1.1711
      Cm = -0.1598     CD =  0.32894   =>   CDf =  0.00062    CDp =  0.32831

 Side 1  free  transition at x/c =  0.0032   28
 Side 2 forced transition at x/c =  1.0000   60

  14   rms: 0.2029E+00   max: 0.1959E+01   D at   32  1   RLX: 0.716
       a = 30.000      CL =  1.1617
      Cm = -0.1631     CD =  0.34479   =>   CDf =  0.00068    CDp =  0.34412

 Side 1  free  transition at x/c =  0.0028   27
 Side 2 forced transition at x/c =  1.0000   61

  15   rms: 0.3423E-01   max: -.3937E+00   C at   61  2
       a = 30.000      CL =  1.1626
      Cm = -0.1620     CD =  0.33410   =>   CDf =  0.00058    CDp =  0.33352

 Side 1  free  transition at x/c =  0.0028   27
 Side 2 forced transition at x/c =  1.0000   61

  16   rms: 0.1340E-01   max: 0.1092E+00   D at   30  1
       a = 30.000      CL =  1.1615
      Cm = -0.1621     CD =  0.32992   =>   CDf =  0.00059    CDp =  0.32933

 Side 1  free  transition at x/c =  0.0027   27
 Side 2 forced transition at x/c =  1.0000   61

  17   rms: 0.2219E-02   max: -.2062E-01   D at   29  1
       a = 30.000      CL =  1.1616
      Cm = -0.1621     CD =  0.32987   =>   CDf =  0.00059    CDp =  0.32928

 Side 1  free  transition at x/c =  0.0027   27
 Side 2 forced transition at x/c =  1.0000   61

  18   rms: 0.1493E-03   max: 0.1815E-02   C at   61  2
       a = 30.000      CL =  1.1616
      Cm = -0.1621     CD =  0.32974   =>   CDf =  0.00059    CDp =  0.32915

 Side 1  free  transition at x/c =  0.0027   27
 Side 2 forced transition at x/c =  1.0000   61

  19   rms: 0.7315E-04   max: 0.1605E-02   C at   61  2
       a = 30.000      CL =  1.1617
      Cm = -0.1621     CD =  0.32979   =>   CDf =  0.00059    CDp =  0.32920
      9.000   22.6045   0.329790   0.000982   0.000435  -0.000546    0.0027     #

 Point added to stored polar  1
 Save file unspecified or not available
 Dump file unspecified or not available

.OPERva   c>  
.OPERva   c>  
.OPERva   c>  
        airfoil                    Re           Mach       NcritT  NcritB  XtripT  XtripB       file
       ------------------------  ------------  ----------  ------  ------  ------  ------    -------------------
 >  1  NACA 0012                 9.000e6       0.000         9.00    9.00   1.000   1.000    

Enter polar output filename   s>  
 Output file exists.  Overwrite?  Y

.OPERva   c>  
 XFOIL   c>  