
 ===================================================
  XFOIL Version 6.99
  Copyright (C) 2000   Mark Drela, Harold Youngren

  This software comes with ABSOLUTELY NO WARRANTY,
    subject to the GNU General Public License.

  Caveat computor
 ===================================================

 File  xfoil.def  not found

   QUIT    Exit program

  .OPER    Direct operating point(s)
  .MDES    Complex mapping design routine
  .QDES    Surface speed design routine
  .GDES    Geometry design routine

   SAVE f  Write airfoil to labeled coordinate file
   PSAV f  Write airfoil to plain coordinate file
   ISAV f  Write airfoil to ISES coordinate file
   MSAV f  Write airfoil to MSES coordinate file
   REVE    Reverse written-airfoil node ordering
   DELI i  Change written-airfoil file delimiters

   LOAD f  Read buffer airfoil from coordinate file
   NACA i  Set NACA 4,5-digit airfoil and buffer airfoil
   INTE    Set buffer airfoil by interpolating two airfoils
   NORM    Buffer airfoil normalization toggle
   HALF    Halve the number of points in buffer airfoil
   XYCM rr Change CM reference location, currently  0.25000 0.00000

   BEND    Display structural properties of current airfoil

   PCOP    Set current-airfoil panel nodes directly from buffer airfoil points
   PANE    Set current-airfoil panel nodes ( 160 ) based on curvature
  .PPAR    Show/change paneling

  .PLOP    Plotting options

   WDEF f  Write  current-settings file
   RDEF f  Reread current-settings file
   NAME s  Specify new airfoil name
   NINC    Increment name version number

   Z       Zoom    | (available in all menus)
   U       Unzoom  | 

 XFOIL   c>   Max thickness =     0.120032  at x =   0.297
 Max camber    =    -0.000000  at x =   0.018

 Buffer airfoil set using 245 points

 Blunt trailing edge.  Gap =  0.00252

 Paneling parameters used...
   Number of panel nodes       160
   Panel bunching parameter    1.000
   TE/LE panel density ratio   0.150
   Refined-area/LE panel density ratio    0.200
   Top    side refined area x/c limits  1.000 1.000
   Bottom side refined area x/c limits  1.000 1.000

 XFOIL   c>  
 XFOIL   c>  
 XFOIL   c>  
 Blunt trailing edge.  Gap =  0.00252

 Paneling parameters used...
   Number of panel nodes       160
   Panel bunching parameter    1.000
   TE/LE panel density ratio   0.150
   Refined-area/LE panel density ratio    0.200
   Top    side refined area x/c limits  1.000 1.000
   Bottom side refined area x/c limits  1.000 1.000

 XFOIL   c>  
 XFOIL   c>  
 XFOIL   c>  
.OPERi   c>  
.OPERi   c>  
.OPERi   c>  
.OPERi   c>  
 M  =    0.0000
 Re =  0.9000E+07

.OPERv   c>  
 Polar  1 newly created for accumulation
 Airfoil archived with polar: NACA 0012                                       

Enter  polar save filename  OR  <return> for no file   s>  
 Polar save file will NOT be written

Enter  polar dump filename  OR  <return> for no file   s>  
 Polar dump file will NOT be written

 Polar accumulation enabled

.OPERva   c>   Calculating unit vorticity distributions ...
 Calculating wake trajectory ...
 Calculating source influence matrix ...

 Solving BL system ...

 Initializing BL ...
    side            1  ...
 MRCHUE: Inverse mode at  27     Hk =   7.601
 MRCHUE: Inverse mode at  28     Hk =   2.500
 MRCHUE: Inverse mode at  96     Hk =   2.500
 MRCHUE: Inverse mode at  97     Hk =   2.500
 MRCHUE: Inverse mode at  98     Hk =   2.500
 MRCHUE: Inverse mode at  99     Hk =   2.500
 MRCHUE: Convergence failed at 100  side 1    Res =  0.5488E+01
    side            2  ...
 MRCHUE: Inverse mode at  60     Hk =   5.156
 MRCHUE: Inverse mode at  61     Hk =   6.854
 MRCHUE: Inverse mode at  62     Hk =   8.103

 MRCHDU: Convergence failed at 100  side 1    Res =  0.4736E+01
 Side 1  free  transition at x/c =  0.0059   28
 Side 2 forced transition at x/c =  1.0000   62

   1   rms: 0.4398E+00   max: -.4037E+01   D at   62  2   RLX: 0.124
       a = 15.000      CL =  1.7623
      Cm = -0.0172     CD =  0.00758   =>   CDf =  0.00438    CDp =  0.00320

 Side 1  free  transition at x/c =  0.0061   28
 Side 2 forced transition at x/c =  1.0000   62

   2   rms: 0.3575E+00   max: -.5581E+01   C at   62  2   RLX: 0.090
       a = 15.000      CL =  1.7477
      Cm = -0.0144     CD =  0.00808   =>   CDf =  0.00438    CDp =  0.00370

 Side 1  free  transition at x/c =  0.0061   28
 Side 2 forced transition at x/c =  1.0000   62

   3   rms: 0.2334E+00   max: -.2144E+01   C at   62  2   RLX: 0.233
       a = 15.000      CL =  1.7248
      Cm = -0.0109     CD =  0.00931   =>   CDf =  0.00438    CDp =  0.00493

 Side 1  free  transition at x/c =  0.0064   28
 Side 2 forced transition at x/c =  1.0000   62

   4   rms: 0.1653E+00   max: -.8561E+00   C at   62  2   RLX: 0.584
       a = 15.000      CL =  1.6761
      Cm = -0.0033     CD =  0.01200   =>   CDf =  0.00439    CDp =  0.00762

 Side 1  free  transition at x/c =  0.0069   29
 Side 2 forced transition at x/c =  1.0000   62

   5   rms: 0.7010E-01   max: -.2865E+00   D at   27  1
       a = 15.000      CL =  1.6198
      Cm =  0.0065     CD =  0.01445   =>   CDf =  0.00437    CDp =  0.01008

 Side 1  free  transition at x/c =  0.0091   30
 Side 2 forced transition at x/c =  1.0000   62

   6   rms: 0.5559E-01   max: -.6760E+00   D at   30  1   RLX: 0.740
       a = 15.000      CL =  1.6126
      Cm =  0.0080     CD =  0.01503   =>   CDf =  0.00429    CDp =  0.01074

 Side 1  free  transition at x/c =  0.0080   29
 Side 2 forced transition at x/c =  1.0000   62

   7   rms: 0.2610E-01   max: -.3897E+00   D at   29  1
       a = 15.000      CL =  1.6151
      Cm =  0.0075     CD =  0.01465   =>   CDf =  0.00426    CDp =  0.01039

 Side 1  free  transition at x/c =  0.0081   29
 Side 2 forced transition at x/c =  1.0000   62

   8   rms: 0.2821E-02   max: 0.8181E-02   T at   31  1
       a = 15.000      CL =  1.6143
      Cm =  0.0076     CD =  0.01473   =>   CDf =  0.00429    CDp =  0.01043

 Side 1  free  transition at x/c =  0.0080   29
 Side 2 forced transition at x/c =  1.0000   62

   9   rms: 0.5186E-04   max: -.8348E-03   D at   29  1
       a = 15.000      CL =  1.6142
      Cm =  0.0076     CD =  0.01473   =>   CDf =  0.00430    CDp =  0.01043
      9.000    4.4896   0.014729   0.000430   0.000465   0.000036    0.0080     #

 Point added to stored polar  1
 Save file unspecified or not available
 Dump file unspecified or not available

.OPERva   c>  
.OPERva   c>  
.OPERva   c>  
        airfoil                    Re           Mach       NcritT  NcritB  XtripT  XtripB       file
       ------------------------  ------------  ----------  ------  ------  ------  ------    -------------------
 >  1  NACA 0012                 9.000e6       0.000         9.00    9.00   1.000   1.000    

Enter polar output filename   s>  
 Output file exists.  Overwrite?  Y

.OPERva   c>  
 XFOIL   c>  