
 ===================================================
  XFOIL Version 6.99
  Copyright (C) 2000   Mark Drela, Harold Youngren

  This software comes with ABSOLUTELY NO WARRANTY,
    subject to the GNU General Public License.

  Caveat computor
 ===================================================

 File  xfoil.def  not found

   QUIT    Exit program

  .OPER    Direct operating point(s)
  .MDES    Complex mapping design routine
  .QDES    Surface speed design routine
  .GDES    Geometry design routine

   SAVE f  Write airfoil to labeled coordinate file
   PSAV f  Write airfoil to plain coordinate file
   ISAV f  Write airfoil to ISES coordinate file
   MSAV f  Write airfoil to MSES coordinate file
   REVE    Reverse written-airfoil node ordering
   DELI i  Change written-airfoil file delimiters

   LOAD f  Read buffer airfoil from coordinate file
   NACA i  Set NACA 4,5-digit airfoil and buffer airfoil
   INTE    Set buffer airfoil by interpolating two airfoils
   NORM    Buffer airfoil normalization toggle
   HALF    Halve the number of points in buffer airfoil
   XYCM rr Change CM reference location, currently  0.25000 0.00000

   BEND    Display structural properties of current airfoil

   PCOP    Set current-airfoil panel nodes directly from buffer airfoil points
   PANE    Set current-airfoil panel nodes ( 160 ) based on curvature
  .PPAR    Show/change paneling

  .PLOP    Plotting options

   WDEF f  Write  current-settings file
   RDEF f  Reread current-settings file
   NAME s  Specify new airfoil name
   NINC    Increment name version number

   Z       Zoom    | (available in all menus)
   U       Unzoom  | 

 XFOIL   c>   Max thickness =     0.120032  at x =   0.297
 Max camber    =    -0.000000  at x =   0.018

 Buffer airfoil set using 245 points

 Blunt trailing edge.  Gap =  0.00252

 Paneling parameters used...
   Number of panel nodes       160
   Panel bunching parameter    1.000
   TE/LE panel density ratio   0.150
   Refined-area/LE panel density ratio    0.200
   Top    side refined area x/c limits  1.000 1.000
   Bottom side refined area x/c limits  1.000 1.000

 XFOIL   c>  
 XFOIL   c>  
 XFOIL   c>  
 Blunt trailing edge.  Gap =  0.00252

 Paneling parameters used...
   Number of panel nodes       160
   Panel bunching parameter    1.000
   TE/LE panel density ratio   0.150
   Refined-area/LE panel density ratio    0.200
   Top    side refined area x/c limits  1.000 1.000
   Bottom side refined area x/c limits  1.000 1.000

 XFOIL   c>  
 XFOIL   c>  
 XFOIL   c>  
.OPERi   c>  
.OPERi   c>  
.OPERi   c>  
.OPERi   c>  
 M  =    0.0000
 Re =  0.9000E+07

.OPERv   c>  
 Polar  1 newly created for accumulation
 Airfoil archived with polar: NACA 0012                                       

Enter  polar save filename  OR  <return> for no file   s>  
 Polar save file will NOT be written

Enter  polar dump filename  OR  <return> for no file   s>  
 Polar dump file will NOT be written

 Polar accumulation enabled

.OPERva   c>   Calculating unit vorticity distributions ...
 Calculating wake trajectory ...
 Calculating source influence matrix ...

 Solving BL system ...

 Initializing BL ...
    side            1  ...
 MRCHUE: Inverse mode at  27     Hk =   7.639
 MRCHUE: Inverse mode at  28     Hk =   2.500
 MRCHUE: Inverse mode at  96     Hk =   2.500
 MRCHUE: Inverse mode at  97     Hk =   2.500
 MRCHUE: Inverse mode at  98     Hk =   2.500
 MRCHUE: Inverse mode at  99     Hk =   2.500
 MRCHUE: Convergence failed at 100  side 1    Res =  0.5849E+01
    side            2  ...
 MRCHUE: Inverse mode at  60     Hk =   5.118
 MRCHUE: Inverse mode at  61     Hk =   6.826
 MRCHUE: Inverse mode at  62     Hk =   8.083

 MRCHDU: Convergence failed at 100  side 1    Res =  0.5055E+01
 Side 1  free  transition at x/c =  0.0058   28
 Side 2 forced transition at x/c =  1.0000   62

   1   rms: 0.4585E+00   max: -.4305E+01   D at   62  2   RLX: 0.116
       a = 15.286      CL =  1.7962
      Cm = -0.0181     CD =  0.00762   =>   CDf =  0.00436    CDp =  0.00326

 Side 1  free  transition at x/c =  0.0060   28
 Side 2 forced transition at x/c =  1.0000   62

   2   rms: 0.3815E+00   max: -.6102E+01   C at   62  2   RLX: 0.082
       a = 15.286      CL =  1.7820
      Cm = -0.0155     CD =  0.00810   =>   CDf =  0.00436    CDp =  0.00373

 Side 1  free  transition at x/c =  0.0060   28
 Side 2 forced transition at x/c =  1.0000   62

   3   rms: 0.2472E+00   max: -.2393E+01   C at   62  2   RLX: 0.209
       a = 15.286      CL =  1.7605
      Cm = -0.0121     CD =  0.00925   =>   CDf =  0.00437    CDp =  0.00489

 Side 1  free  transition at x/c =  0.0062   28
 Side 2 forced transition at x/c =  1.0000   62

   4   rms: 0.1795E+00   max: -.1034E+01   C at   62  2   RLX: 0.483
       a = 15.286      CL =  1.7176
      Cm = -0.0053     CD =  0.01164   =>   CDf =  0.00437    CDp =  0.00727

 Side 1  free  transition at x/c =  0.0067   28
 Side 2 forced transition at x/c =  1.0000   62

   5   rms: 0.9522E-01   max: 0.3927E+00   D at   70  2
       a = 15.286      CL =  1.6470
      Cm =  0.0067     CD =  0.01503   =>   CDf =  0.00436    CDp =  0.01067

 Side 1  free  transition at x/c =  0.0083   29
 Side 2 forced transition at x/c =  1.0000   62

   6   rms: 0.2360E-01   max: -.4220E+00   D at   29  1
       a = 15.286      CL =  1.6410
      Cm =  0.0082     CD =  0.01503   =>   CDf =  0.00428    CDp =  0.01075

 Side 1  free  transition at x/c =  0.0080   29
 Side 2 forced transition at x/c =  1.0000   62

   7   rms: 0.8118E-02   max: -.1290E+00   D at   29  1
       a = 15.286      CL =  1.6386
      Cm =  0.0085     CD =  0.01521   =>   CDf =  0.00428    CDp =  0.01093

 Side 1  free  transition at x/c =  0.0078   29
 Side 2 forced transition at x/c =  1.0000   62

   8   rms: 0.7223E-03   max: -.1128E-01   D at   29  1
       a = 15.286      CL =  1.6385
      Cm =  0.0085     CD =  0.01522   =>   CDf =  0.00429    CDp =  0.01093

 Side 1  free  transition at x/c =  0.0077   29
 Side 2 forced transition at x/c =  1.0000   62

   9   rms: 0.1054E-04   max: -.1603E-03   D at   29  1
       a = 15.286      CL =  1.6385
      Cm =  0.0085     CD =  0.01522   =>   CDf =  0.00429    CDp =  0.01093
      9.000    4.5709   0.015218   0.000438   0.000478   0.000040    0.0077     #

 Point added to stored polar  1
 Save file unspecified or not available
 Dump file unspecified or not available

.OPERva   c>  
.OPERva   c>  
.OPERva   c>  
        airfoil                    Re           Mach       NcritT  NcritB  XtripT  XtripB       file
       ------------------------  ------------  ----------  ------  ------  ------  ------    -------------------
 >  1  NACA 0012                 9.000e6       0.000         9.00    9.00   1.000   1.000    

Enter polar output filename   s>  
.OPERva   c>  
 ==============================================================
 Polar  1
  
       XFOIL         Version 6.99
  
 Calculated polar for: NACA 0012                                       
  
 1 1 Reynolds number fixed          Mach number fixed         
  
 xtrf =   1.000 (top)        1.000 (bottom)  
 Mach =   0.000     Re =     9.000 e 6     Ncrit =   9.000  9.000
  
   alpha    CL        CD       CDp       CM     Top_Xtr  Bot_Xtr  Top_Itr  Bot_Itr
  ------ -------- --------- --------- -------- -------- -------- -------- --------
  15.286   1.6385   0.01522   0.00680   0.0085   0.0077   1.0000  72.5192 160.0000

.OPERva   c>  
 XFOIL   c>  