
 ===================================================
  XFOIL Version 6.99
  Copyright (C) 2000   Mark Drela, Harold Youngren

  This software comes with ABSOLUTELY NO WARRANTY,
    subject to the GNU General Public License.

  Caveat computor
 ===================================================

 File  xfoil.def  not found

   QUIT    Exit program

  .OPER    Direct operating point(s)
  .MDES    Complex mapping design routine
  .QDES    Surface speed design routine
  .GDES    Geometry design routine

   SAVE f  Write airfoil to labeled coordinate file
   PSAV f  Write airfoil to plain coordinate file
   ISAV f  Write airfoil to ISES coordinate file
   MSAV f  Write airfoil to MSES coordinate file
   REVE    Reverse written-airfoil node ordering
   DELI i  Change written-airfoil file delimiters

   LOAD f  Read buffer airfoil from coordinate file
   NACA i  Set NACA 4,5-digit airfoil and buffer airfoil
   INTE    Set buffer airfoil by interpolating two airfoils
   NORM    Buffer airfoil normalization toggle
   HALF    Halve the number of points in buffer airfoil
   XYCM rr Change CM reference location, currently  0.25000 0.00000

   BEND    Display structural properties of current airfoil

   PCOP    Set current-airfoil panel nodes directly from buffer airfoil points
   PANE    Set current-airfoil panel nodes ( 160 ) based on curvature
  .PPAR    Show/change paneling

  .PLOP    Plotting options

   WDEF f  Write  current-settings file
   RDEF f  Reread current-settings file
   NAME s  Specify new airfoil name
   NINC    Increment name version number

   Z       Zoom    | (available in all menus)
   U       Unzoom  | 

 XFOIL   c>   Max thickness =     0.120032  at x =   0.297
 Max camber    =    -0.000000  at x =   0.018

 Buffer airfoil set using 245 points

 Blunt trailing edge.  Gap =  0.00252

 Paneling parameters used...
   Number of panel nodes       160
   Panel bunching parameter    1.000
   TE/LE panel density ratio   0.150
   Refined-area/LE panel density ratio    0.200
   Top    side refined area x/c limits  1.000 1.000
   Bottom side refined area x/c limits  1.000 1.000

 XFOIL   c>  
 XFOIL   c>  
 XFOIL   c>  
 Blunt trailing edge.  Gap =  0.00252

 Paneling parameters used...
   Number of panel nodes       160
   Panel bunching parameter    1.000
   TE/LE panel density ratio   0.150
   Refined-area/LE panel density ratio    0.200
   Top    side refined area x/c limits  1.000 1.000
   Bottom side refined area x/c limits  1.000 1.000

 XFOIL   c>  
 XFOIL   c>  
 XFOIL   c>  
.OPERi   c>  
.OPERi   c>  
.OPERi   c>  
.OPERi   c>  
 M  =    0.0000
 Re =  0.9000E+07

.OPERv   c>  
 Polar  1 newly created for accumulation
 Airfoil archived with polar: NACA 0012                                       

Enter  polar save filename  OR  <return> for no file   s>  
 Polar save file will NOT be written

Enter  polar dump filename  OR  <return> for no file   s>  
 Polar dump file will NOT be written

 Polar accumulation enabled

.OPERva   c>   Calculating unit vorticity distributions ...
 Calculating wake trajectory ...
 Calculating source influence matrix ...

 Solving BL system ...

 Initializing BL ...
    side            1  ...
 MRCHUE: Inverse mode at  25     Hk =   7.345
 MRCHUE: Inverse mode at  26     Hk =   2.500
 MRCHUE: Inverse mode at  96     Hk =   2.500
 MRCHUE: Inverse mode at  97     Hk =   2.500
    side            2  ...
 MRCHUE: Inverse mode at  62     Hk =   5.366
 MRCHUE: Inverse mode at  63     Hk =   7.244
 MRCHUE: Inverse mode at  64     Hk =   2.500

 Side 1  free  transition at x/c =  0.0079   26
 Side 2  free  transition at x/c =  0.9822   64

   1   rms: 0.2125E+00   max: -.1223E+01   T at   65  2   RLX: 0.409
       a = 12.000      CL =  1.4058
      Cm = -0.0121     CD =  0.00805   =>   CDf =  0.00442    CDp =  0.00363

 MRCHDU: Convergence failed at  65  side 2    Res =  0.6027E+01
 Side 1  free  transition at x/c =  0.0085   26
 Side 2  free  transition at x/c =  0.9976   65

   2   rms: 0.1168E+00   max: 0.5297E+00   D at   70  2
       a = 12.000      CL =  1.3628
      Cm = -0.0060     CD =  0.01075   =>   CDf =  0.00442    CDp =  0.00633

 Side 1  free  transition at x/c =  0.0133   28
 Side 2 forced transition at x/c =  1.0000   65

   3   rms: 0.7530E-01   max: -.7385E+00   D at   65  2   RLX: 0.677
       a = 12.000      CL =  1.3388
      Cm = -0.0003     CD =  0.01070   =>   CDf =  0.00433    CDp =  0.00637

 Side 1  free  transition at x/c =  0.0119   28
 Side 2 forced transition at x/c =  1.0000   65

   4   rms: 0.4087E-01   max: -.7211E+00   D at   28  1   RLX: 0.693
       a = 12.000      CL =  1.3321
      Cm =  0.0009     CD =  0.01098   =>   CDf =  0.00434    CDp =  0.00664

 Side 1  free  transition at x/c =  0.0110   27
 Side 2 forced transition at x/c =  1.0000   65

   5   rms: 0.1059E-01   max: -.1592E+00   C at   27  1
       a = 12.000      CL =  1.3308
      Cm =  0.0010     CD =  0.01088   =>   CDf =  0.00434    CDp =  0.00654

 Side 1  free  transition at x/c =  0.0108   27
 Side 2 forced transition at x/c =  1.0000   65

   6   rms: 0.7600E-03   max: 0.3455E-02   C at   65  2
       a = 12.000      CL =  1.3306
      Cm =  0.0010     CD =  0.01089   =>   CDf =  0.00434    CDp =  0.00655

 Side 1  free  transition at x/c =  0.0108   27
 Side 2 forced transition at x/c =  1.0000   65

   7   rms: 0.6011E-05   max: -.1163E-03   D at   27  1
       a = 12.000      CL =  1.3306
      Cm =  0.0010     CD =  0.01089   =>   CDf =  0.00434    CDp =  0.00655
      9.000    4.0681   0.010890   0.000351   0.000357   0.000007    0.0108     #

 Point added to stored polar  1
 Save file unspecified or not available
 Dump file unspecified or not available

.OPERva   c>  
.OPERva   c>  
.OPERva   c>  
        airfoil                    Re           Mach       NcritT  NcritB  XtripT  XtripB       file
       ------------------------  ------------  ----------  ------  ------  ------  ------    -------------------
 >  1  NACA 0012                 9.000e6       0.000         9.00    9.00   1.000   1.000    

Enter polar output filename   s>  
.OPERva   c>  
 ==============================================================
 Polar  1
  
       XFOIL         Version 6.99
  
 Calculated polar for: NACA 0012                                       
  
 1 1 Reynolds number fixed          Mach number fixed         
  
 xtrf =   1.000 (top)        1.000 (bottom)  
 Mach =   0.000     Re =     9.000 e 6     Ncrit =   9.000  9.000
  
   alpha    CL        CD       CDp       CM     Top_Xtr  Bot_Xtr  Top_Itr  Bot_Itr
  ------ -------- --------- --------- -------- -------- -------- -------- --------
  12.000   1.3306   0.01089   0.00422   0.0010   0.0108   1.0000  71.1308 160.0000

.OPERva   c>  
 XFOIL   c>  