
 ===================================================
  XFOIL Version 6.99
  Copyright (C) 2000   Mark Drela, Harold Youngren

  This software comes with ABSOLUTELY NO WARRANTY,
    subject to the GNU General Public License.

  Caveat computor
 ===================================================

 File  xfoil.def  not found

   QUIT    Exit program

  .OPER    Direct operating point(s)
  .MDES    Complex mapping design routine
  .QDES    Surface speed design routine
  .GDES    Geometry design routine

   SAVE f  Write airfoil to labeled coordinate file
   PSAV f  Write airfoil to plain coordinate file
   ISAV f  Write airfoil to ISES coordinate file
   MSAV f  Write airfoil to MSES coordinate file
   REVE    Reverse written-airfoil node ordering
   DELI i  Change written-airfoil file delimiters

   LOAD f  Read buffer airfoil from coordinate file
   NACA i  Set NACA 4,5-digit airfoil and buffer airfoil
   INTE    Set buffer airfoil by interpolating two airfoils
   NORM    Buffer airfoil normalization toggle
   HALF    Halve the number of points in buffer airfoil
   XYCM rr Change CM reference location, currently  0.25000 0.00000

   BEND    Display structural properties of current airfoil

   PCOP    Set current-airfoil panel nodes directly from buffer airfoil points
   PANE    Set current-airfoil panel nodes ( 160 ) based on curvature
  .PPAR    Show/change paneling

  .PLOP    Plotting options

   WDEF f  Write  current-settings file
   RDEF f  Reread current-settings file
   NAME s  Specify new airfoil name
   NINC    Increment name version number

   Z       Zoom    | (available in all menus)
   U       Unzoom  | 

 XFOIL   c>   Max thickness =     0.120032  at x =   0.297
 Max camber    =    -0.000000  at x =   0.015

 Buffer airfoil set using 245 points

 Blunt trailing edge.  Gap =  0.00252

 Paneling parameters used...
   Number of panel nodes       160
   Panel bunching parameter    1.000
   TE/LE panel density ratio   0.150
   Refined-area/LE panel density ratio    0.200
   Top    side refined area x/c limits  1.000 1.000
   Bottom side refined area x/c limits  1.000 1.000

 XFOIL   c>  
 XFOIL   c>  
 XFOIL   c>  
 Blunt trailing edge.  Gap =  0.00252

 Paneling parameters used...
   Number of panel nodes       160
   Panel bunching parameter    1.000
   TE/LE panel density ratio   0.150
   Refined-area/LE panel density ratio    0.200
   Top    side refined area x/c limits  1.000 1.000
   Bottom side refined area x/c limits  1.000 1.000

 XFOIL   c>  
 XFOIL   c>  
 XFOIL   c>  
.OPERi   c>  
.OPERi   c>  
.OPERi   c>  
.OPERi   c>  
 M  =    0.0000
 Re =  0.9000E+07

.OPERv   c>  
 Polar  1 newly created for accumulation
 Airfoil archived with polar: NACA 0012                                       

Enter  polar save filename  OR  <return> for no file   s>  
 Polar save file will NOT be written

Enter  polar dump filename  OR  <return> for no file   s>  
 Polar dump file will NOT be written

 Polar accumulation enabled

.OPERva   c>   Calculating unit vorticity distributions ...
 Calculating wake trajectory ...
 Calculating source influence matrix ...

 Solving BL system ...

 Initializing BL ...
    side            1  ...
 MRCHUE: Inverse mode at  28     Hk =   7.648
 MRCHUE: Inverse mode at  29     Hk =   2.500
 MRCHUE: Inverse mode at  97     Hk =   2.500
 MRCHUE: Inverse mode at  98     Hk =   2.500
 MRCHUE: Inverse mode at  99     Hk =   2.500
 MRCHUE: Inverse mode at 100     Hk =   2.500
 MRCHUE: Convergence failed at 101  side 1    Res =  0.5966E+01
    side            2  ...
 MRCHUE: Inverse mode at  59     Hk =   5.107
 MRCHUE: Inverse mode at  60     Hk =   6.817
 MRCHUE: Inverse mode at  61     Hk =   8.075

 MRCHDU: Convergence failed at 101  side 1    Res =  0.5159E+01
 Side 1  free  transition at x/c =  0.0058   29
 Side 2 forced transition at x/c =  1.0000   61

   1   rms: 0.4631E+00   max: -.4358E+01   D at   61  2   RLX: 0.115
       a = 15.353      CL =  1.8042
      Cm = -0.0184     CD =  0.00761   =>   CDf =  0.00464    CDp =  0.00298

 Side 1  free  transition at x/c =  0.0059   28
 Side 2 forced transition at x/c =  1.0000   62

   2   rms: 0.3890E+00   max: -.6206E+01   C at   62  2   RLX: 0.081
       a = 15.353      CL =  1.7901
      Cm = -0.0157     CD =  0.00809   =>   CDf =  0.00436    CDp =  0.00373

 Side 1  free  transition at x/c =  0.0060   28
 Side 2 forced transition at x/c =  1.0000   62

   3   rms: 0.2504E+00   max: -.2443E+01   C at   62  2   RLX: 0.205
       a = 15.353      CL =  1.7688
      Cm = -0.0124     CD =  0.00924   =>   CDf =  0.00436    CDp =  0.00488

 Side 1  free  transition at x/c =  0.0062   28
 Side 2 forced transition at x/c =  1.0000   62

   4   rms: 0.1827E+00   max: -.1068E+01   C at   62  2   RLX: 0.468
       a = 15.353      CL =  1.7267
      Cm = -0.0057     CD =  0.01159   =>   CDf =  0.00437    CDp =  0.00722

 Side 1  free  transition at x/c =  0.0066   28
 Side 2 forced transition at x/c =  1.0000   62

   5   rms: 0.9901E-01   max: 0.4110E+00   D at   70  2
       a = 15.353      CL =  1.6540
      Cm =  0.0066     CD =  0.01508   =>   CDf =  0.00436    CDp =  0.01072

 Side 1  free  transition at x/c =  0.0085   29
 Side 2 forced transition at x/c =  1.0000   62

   6   rms: 0.2811E-01   max: 0.4443E+00   C at   29  1
       a = 15.353      CL =  1.6457
      Cm =  0.0085     CD =  0.01523   =>   CDf =  0.00429    CDp =  0.01094

 Side 1  free  transition at x/c =  0.0079   29
 Side 2 forced transition at x/c =  1.0000   62

   7   rms: 0.6657E-02   max: -.1121E+00   D at   29  1
       a = 15.353      CL =  1.6440
      Cm =  0.0088     CD =  0.01533   =>   CDf =  0.00428    CDp =  0.01105

 Side 1  free  transition at x/c =  0.0077   29
 Side 2 forced transition at x/c =  1.0000   62

   8   rms: 0.6553E-03   max: -.1033E-01   D at   29  1
       a = 15.353      CL =  1.6440
      Cm =  0.0088     CD =  0.01534   =>   CDf =  0.00429    CDp =  0.01105

 Side 1  free  transition at x/c =  0.0077   29
 Side 2 forced transition at x/c =  1.0000   62

   9   rms: 0.1023E-04   max: -.1633E-03   D at   29  1
       a = 15.353      CL =  1.6440
      Cm =  0.0088     CD =  0.01534   =>   CDf =  0.00429    CDp =  0.01105
      9.000    4.6050   0.015338   0.000440   0.000482   0.000042    0.0077     #

 Point added to stored polar  1
 Save file unspecified or not available
 Dump file unspecified or not available

.OPERva   c>  
.OPERva   c>  
.OPERva   c>  
        airfoil                    Re           Mach       NcritT  NcritB  XtripT  XtripB       file
       ------------------------  ------------  ----------  ------  ------  ------  ------    -------------------
 >  1  NACA 0012                 9.000e6       0.000         9.00    9.00   1.000   1.000    

Enter polar output filename   s>  
.OPERva   c>  
 ==============================================================
 Polar  1
  
       XFOIL         Version 6.99
  
 Calculated polar for: NACA 0012                                       
  
 1 1 Reynolds number fixed          Mach number fixed         
  
 xtrf =   1.000 (top)        1.000 (bottom)  
 Mach =   0.000     Re =     9.000 e 6     Ncrit =   9.000  9.000
  
   alpha    CL        CD       CDp       CM     Top_Xtr  Bot_Xtr  Top_Itr  Bot_Itr
  ------ -------- --------- --------- -------- -------- -------- -------- --------
  15.353   1.6440   0.01534   0.00687   0.0088   0.0077   1.0000  72.5540 160.0000

.OPERva   c>  
 XFOIL   c>  