
 ===================================================
  XFOIL Version 6.99
  Copyright (C) 2000   Mark Drela, Harold Youngren

  This software comes with ABSOLUTELY NO WARRANTY,
    subject to the GNU General Public License.

  Caveat computor
 ===================================================

 File  xfoil.def  not found

   QUIT    Exit program

  .OPER    Direct operating point(s)
  .MDES    Complex mapping design routine
  .QDES    Surface speed design routine
  .GDES    Geometry design routine

   SAVE f  Write airfoil to labeled coordinate file
   PSAV f  Write airfoil to plain coordinate file
   ISAV f  Write airfoil to ISES coordinate file
   MSAV f  Write airfoil to MSES coordinate file
   REVE    Reverse written-airfoil node ordering
   DELI i  Change written-airfoil file delimiters

   LOAD f  Read buffer airfoil from coordinate file
   NACA i  Set NACA 4,5-digit airfoil and buffer airfoil
   INTE    Set buffer airfoil by interpolating two airfoils
   NORM    Buffer airfoil normalization toggle
   HALF    Halve the number of points in buffer airfoil
   XYCM rr Change CM reference location, currently  0.25000 0.00000

   BEND    Display structural properties of current airfoil

   PCOP    Set current-airfoil panel nodes directly from buffer airfoil points
   PANE    Set current-airfoil panel nodes ( 160 ) based on curvature
  .PPAR    Show/change paneling

  .PLOP    Plotting options

   WDEF f  Write  current-settings file
   RDEF f  Reread current-settings file
   NAME s  Specify new airfoil name
   NINC    Increment name version number

   Z       Zoom    | (available in all menus)
   U       Unzoom  | 

 XFOIL   c>   Max thickness =     0.120032  at x =   0.297
 Max camber    =    -0.000000  at x =   0.018

 Buffer airfoil set using 245 points

 Blunt trailing edge.  Gap =  0.00252

 Paneling parameters used...
   Number of panel nodes       160
   Panel bunching parameter    1.000
   TE/LE panel density ratio   0.150
   Refined-area/LE panel density ratio    0.200
   Top    side refined area x/c limits  1.000 1.000
   Bottom side refined area x/c limits  1.000 1.000

 XFOIL   c>  
 XFOIL   c>  
 XFOIL   c>  
 Blunt trailing edge.  Gap =  0.00252

 Paneling parameters used...
   Number of panel nodes       160
   Panel bunching parameter    1.000
   TE/LE panel density ratio   0.150
   Refined-area/LE panel density ratio    0.200
   Top    side refined area x/c limits  1.000 1.000
   Bottom side refined area x/c limits  1.000 1.000

 XFOIL   c>  
 XFOIL   c>  
 XFOIL   c>  
.OPERi   c>  
.OPERi   c>  
.OPERi   c>  
.OPERi   c>  
 M  =    0.0000
 Re =  0.9000E+07

.OPERv   c>  
 Polar  1 newly created for accumulation
 Airfoil archived with polar: NACA 0012                                       

Enter  polar save filename  OR  <return> for no file   s>  
 Polar save file will NOT be written

Enter  polar dump filename  OR  <return> for no file   s>  
 Polar dump file will NOT be written

 Polar accumulation enabled

.OPERva   c>   Calculating unit vorticity distributions ...
 Calculating wake trajectory ...
 Calculating source influence matrix ...

 Solving BL system ...

 Initializing BL ...
    side            1  ...
 MRCHUE: Inverse mode at  29     Hk =   7.788
 MRCHUE: Inverse mode at  30     Hk =   2.500
 MRCHUE: Inverse mode at  95     Hk =   2.500
 MRCHUE: Inverse mode at  96     Hk =   2.500
 MRCHUE: Inverse mode at  97     Hk =   2.500
 MRCHUE: Inverse mode at  98     Hk =   2.500
 MRCHUE: Inverse mode at  99     Hk =   2.500
 MRCHUE: Inverse mode at 100     Hk =   2.500
 MRCHUE: Inverse mode at 101     Hk =   2.500
 MRCHUE: Inverse mode at 102     Hk =   2.500
 MRCHUE: Convergence failed at 103  side 1    Res =  0.1464E+02
    side            2  ...
 MRCHUE: Inverse mode at  58     Hk =   5.360
 MRCHUE: Inverse mode at  59     Hk =   6.661

 MRCHDU: Convergence failed at 103  side 1    Res =  0.1114E+02
 Side 1  free  transition at x/c =  0.0043   30
 Side 2 forced transition at x/c =  1.0000   59

   1   rms: 0.7321E+00   max: -.8044E+01   D at   59  2   RLX: 0.062
       a = 17.843      CL =  2.1077
      Cm = -0.0301     CD =  0.00782   =>   CDf =  0.00460    CDp =  0.00322

 Side 1  free  transition at x/c =  0.0044   29
 Side 2 forced transition at x/c =  1.0000   60

   2   rms: 0.4700E+00   max: -.7008E+01   C at   60  2   RLX: 0.071
       a = 17.843      CL =  2.0935
      Cm = -0.0274     CD =  0.00841   =>   CDf =  0.00427    CDp =  0.00415

 Side 1  free  transition at x/c =  0.0044   29
 Side 2 forced transition at x/c =  1.0000   60

   3   rms: 0.3492E+00   max: -.3747E+01   C at   60  2   RLX: 0.133
       a = 17.843      CL =  2.0732
      Cm = -0.0239     CD =  0.00950   =>   CDf =  0.00427    CDp =  0.00522

 Side 1  free  transition at x/c =  0.0046   29
 Side 2 forced transition at x/c =  1.0000   60

   4   rms: 0.2815E+00   max: -.2205E+01   C at   60  2   RLX: 0.227
       a = 17.843      CL =  2.0409
      Cm = -0.0185     CD =  0.01128   =>   CDf =  0.00428    CDp =  0.00699

 Side 1  free  transition at x/c =  0.0048   29
 Side 2 forced transition at x/c =  1.0000   60

   5   rms: 0.2167E+00   max: -.1067E+01   C at   60  2   RLX: 0.469
       a = 17.843      CL =  1.9748
      Cm = -0.0072     CD =  0.01465   =>   CDf =  0.00429    CDp =  0.01036

 Side 1  free  transition at x/c =  0.0054   30
 Side 2 forced transition at x/c =  1.0000   60

   6   rms: 0.1284E+00   max: 0.4372E+00   D at   69  2
       a = 17.843      CL =  1.8567
      Cm =  0.0146     CD =  0.01909   =>   CDf =  0.00426    CDp =  0.01483

 MRCHDU: Convergence failed at  31  side 1    Res =  0.8334E+00
 Side 1  free  transition at x/c =  0.0090   32
 Side 2 forced transition at x/c =  1.0000   60

   7   rms: 0.1510E+00   max: -.1856E+01   D at   32  1   RLX: 0.269
       a = 17.843      CL =  1.8457
      Cm =  0.0188     CD =  0.01971   =>   CDf =  0.00408    CDp =  0.01562

 Side 1  free  transition at x/c =  0.0082   31
 Side 2 forced transition at x/c =  1.0000   60

   8   rms: 0.9586E-01   max: -.6182E+00   D at   32  1   RLX: 0.581
       a = 17.843      CL =  1.8164
      Cm =  0.0221     CD =  0.02035   =>   CDf =  0.00440    CDp =  0.01595

 Side 1  free  transition at x/c =  0.0069   30
 Side 2 forced transition at x/c =  1.0000   61

   9   rms: 0.5386E-01   max: -.2173E+00   D at    2  2
       a = 17.843      CL =  1.7888
      Cm =  0.0249     CD =  0.02151   =>   CDf =  0.00409    CDp =  0.01742

 Side 1  free  transition at x/c =  0.0061   29
 Side 2 forced transition at x/c =  1.0000   61

  10   rms: 0.7734E-01   max: -.8016E+00   D at   29  1   RLX: 0.624
       a = 17.843      CL =  1.8007
      Cm =  0.0229     CD =  0.02065   =>   CDf =  0.00396    CDp =  0.01670

 Side 1  free  transition at x/c =  0.0065   29
 Side 2 forced transition at x/c =  1.0000   61

  11   rms: 0.2061E-01   max: -.3471E+00   D at   29  1
       a = 17.843      CL =  1.8038
      Cm =  0.0232     CD =  0.02053   =>   CDf =  0.00405    CDp =  0.01649

 Side 1  free  transition at x/c =  0.0066   29
 Side 2 forced transition at x/c =  1.0000   61

  12   rms: 0.3751E-02   max: -.1871E-01   U at   29  1
       a = 17.843      CL =  1.8030
      Cm =  0.0233     CD =  0.02062   =>   CDf =  0.00407    CDp =  0.01655

 Side 1  free  transition at x/c =  0.0065   29
 Side 2 forced transition at x/c =  1.0000   61

  13   rms: 0.5999E-04   max: -.5055E-03   D at   29  1
       a = 17.843      CL =  1.8029
      Cm =  0.0233     CD =  0.02062   =>   CDf =  0.00407    CDp =  0.01655
      9.000    4.3316   0.020618   0.018734   0.000547  -0.018188    0.0065     #

 Point added to stored polar  1
 Save file unspecified or not available
 Dump file unspecified or not available

.OPERva   c>  
.OPERva   c>  
.OPERva   c>  
        airfoil                    Re           Mach       NcritT  NcritB  XtripT  XtripB       file
       ------------------------  ------------  ----------  ------  ------  ------  ------    -------------------
 >  1  NACA 0012                 9.000e6       0.000         9.00    9.00   1.000   1.000    

Enter polar output filename   s>  
.OPERva   c>  
 ==============================================================
 Polar  1
  
       XFOIL         Version 6.99
  
 Calculated polar for: NACA 0012                                       
  
 1 1 Reynolds number fixed          Mach number fixed         
  
 xtrf =   1.000 (top)        1.000 (bottom)  
 Mach =   0.000     Re =     9.000 e 6     Ncrit =   9.000  9.000
  
   alpha    CL        CD       CDp       CM     Top_Xtr  Bot_Xtr  Top_Itr  Bot_Itr
  ------ -------- --------- --------- -------- -------- -------- -------- --------
  17.843   1.8029   0.02062   0.00955   0.0233   0.0065   1.0000  73.1400 160.0000

.OPERva   c>  
 XFOIL   c>  