
 ===================================================
  XFOIL Version 6.99
  Copyright (C) 2000   Mark Drela, Harold Youngren

  This software comes with ABSOLUTELY NO WARRANTY,
    subject to the GNU General Public License.

  Caveat computor
 ===================================================

 File  xfoil.def  not found

   QUIT    Exit program

  .OPER    Direct operating point(s)
  .MDES    Complex mapping design routine
  .QDES    Surface speed design routine
  .GDES    Geometry design routine

   SAVE f  Write airfoil to labeled coordinate file
   PSAV f  Write airfoil to plain coordinate file
   ISAV f  Write airfoil to ISES coordinate file
   MSAV f  Write airfoil to MSES coordinate file
   REVE    Reverse written-airfoil node ordering
   DELI i  Change written-airfoil file delimiters

   LOAD f  Read buffer airfoil from coordinate file
   NACA i  Set NACA 4,5-digit airfoil and buffer airfoil
   INTE    Set buffer airfoil by interpolating two airfoils
   NORM    Buffer airfoil normalization toggle
   HALF    Halve the number of points in buffer airfoil
   XYCM rr Change CM reference location, currently  0.25000 0.00000

   BEND    Display structural properties of current airfoil

   PCOP    Set current-airfoil panel nodes directly from buffer airfoil points
   PANE    Set current-airfoil panel nodes ( 160 ) based on curvature
  .PPAR    Show/change paneling

  .PLOP    Plotting options

   WDEF f  Write  current-settings file
   RDEF f  Reread current-settings file
   NAME s  Specify new airfoil name
   NINC    Increment name version number

   Z       Zoom    | (available in all menus)
   U       Unzoom  | 

 XFOIL   c>   Max thickness =     0.120032  at x =   0.297
 Max camber    =    -0.000000  at x =   0.015

 Buffer airfoil set using 245 points

 Blunt trailing edge.  Gap =  0.00252

 Paneling parameters used...
   Number of panel nodes       160
   Panel bunching parameter    1.000
   TE/LE panel density ratio   0.150
   Refined-area/LE panel density ratio    0.200
   Top    side refined area x/c limits  1.000 1.000
   Bottom side refined area x/c limits  1.000 1.000

 XFOIL   c>  
 XFOIL   c>  
 XFOIL   c>  
 Blunt trailing edge.  Gap =  0.00252

 Paneling parameters used...
   Number of panel nodes       160
   Panel bunching parameter    1.000
   TE/LE panel density ratio   0.150
   Refined-area/LE panel density ratio    0.200
   Top    side refined area x/c limits  1.000 1.000
   Bottom side refined area x/c limits  1.000 1.000

 XFOIL   c>  
 XFOIL   c>  
 XFOIL   c>  
.OPERi   c>  
.OPERi   c>  
.OPERi   c>  
.OPERi   c>  
 M  =    0.0000
 Re =  0.9000E+07

.OPERv   c>  
 Polar  1 newly created for accumulation
 Airfoil archived with polar: NACA 0012                                       

Enter  polar save filename  OR  <return> for no file   s>  
 Polar save file will NOT be written

Enter  polar dump filename  OR  <return> for no file   s>  
 Polar dump file will NOT be written

 Polar accumulation enabled

.OPERva   c>   Calculating unit vorticity distributions ...
 Calculating wake trajectory ...
 Calculating source influence matrix ...

 Solving BL system ...

 Initializing BL ...
    side            1  ...
 MRCHUE: Inverse mode at  28     Hk =   7.858
 MRCHUE: Inverse mode at  29     Hk =   2.500
 MRCHUE: Inverse mode at  95     Hk =   2.500
 MRCHUE: Inverse mode at  96     Hk =   2.500
 MRCHUE: Inverse mode at  97     Hk =   2.500
 MRCHUE: Inverse mode at  98     Hk =   2.500
 MRCHUE: Inverse mode at  99     Hk =   2.500
 MRCHUE: Inverse mode at 100     Hk =   2.500
 MRCHUE: Convergence failed at 101  side 1    Res =  0.8155E+01
    side            2  ...
 MRCHUE: Inverse mode at  59     Hk =   5.026
 MRCHUE: Inverse mode at  60     Hk =   6.778
 MRCHUE: Inverse mode at  61     Hk =   8.065

 MRCHDU: Convergence failed at 101  side 1    Res =  0.6732E+01
 Side 1  free  transition at x/c =  0.0055   29
 Side 2 forced transition at x/c =  1.0000   61

   1   rms: 0.5329E+00   max: -.5338E+01   D at   61  2   RLX: 0.094
       a = 16.434      CL =  1.9325
      Cm = -0.0228     CD =  0.00776   =>   CDf =  0.00425    CDp =  0.00351

 Side 1  free  transition at x/c =  0.0056   29
 Side 2 forced transition at x/c =  1.0000   61

   2   rms: 0.4798E+00   max: -.8179E+01   C at   61  2   RLX: 0.061
       a = 16.434      CL =  1.9195
      Cm = -0.0203     CD =  0.00818   =>   CDf =  0.00426    CDp =  0.00391

 Side 1  free  transition at x/c =  0.0056   29
 Side 2 forced transition at x/c =  1.0000   61

   3   rms: 0.3033E+00   max: -.3405E+01   C at   61  2   RLX: 0.147
       a = 16.434      CL =  1.9012
      Cm = -0.0172     CD =  0.00913   =>   CDf =  0.00427    CDp =  0.00486

 Side 1  free  transition at x/c =  0.0058   29
 Side 2 forced transition at x/c =  1.0000   61

   4   rms: 0.2350E+00   max: -.1772E+01   C at   61  2   RLX: 0.282
       a = 16.434      CL =  1.8703
      Cm = -0.0120     CD =  0.01089   =>   CDf =  0.00429    CDp =  0.00660

 Side 1  free  transition at x/c =  0.0060   29
 Side 2 forced transition at x/c =  1.0000   61

   5   rms: 0.1629E+00   max: 0.7052E+00   D at   67  2   RLX: 0.770
       a = 16.434      CL =  1.7927
      Cm =  0.0013     CD =  0.01489   =>   CDf =  0.00430    CDp =  0.01059

 Side 1  free  transition at x/c =  0.0067   29
 Side 2 forced transition at x/c =  1.0000   61

   6   rms: 0.5681E-01   max: 0.2715E+00   C at   61  2
       a = 16.434      CL =  1.7314
      Cm =  0.0126     CD =  0.01729   =>   CDf =  0.00428    CDp =  0.01301

 Side 1  free  transition at x/c =  0.0068   29
 Side 2 forced transition at x/c =  1.0000   61

   7   rms: 0.5633E-02   max: 0.3411E-01   D at   67  2
       a = 16.434      CL =  1.7277
      Cm =  0.0133     CD =  0.01739   =>   CDf =  0.00422    CDp =  0.01317

 Side 1  free  transition at x/c =  0.0068   29
 Side 2 forced transition at x/c =  1.0000   61

   8   rms: 0.3402E-03   max: 0.4601E-02   D at   63  2
       a = 16.434      CL =  1.7274
      Cm =  0.0133     CD =  0.01738   =>   CDf =  0.00421    CDp =  0.01317

 Side 1  free  transition at x/c =  0.0068   29
 Side 2 forced transition at x/c =  1.0000   61

   9   rms: 0.1151E-04   max: 0.1898E-03   D at   63  2
       a = 16.434      CL =  1.7274
      Cm =  0.0133     CD =  0.01738   =>   CDf =  0.00421    CDp =  0.01317
      9.000    4.7437   0.017384   0.000466   0.000540   0.000074    0.0068     #

 Point added to stored polar  1
 Save file unspecified or not available
 Dump file unspecified or not available

.OPERva   c>  
.OPERva   c>  
.OPERva   c>  
        airfoil                    Re           Mach       NcritT  NcritB  XtripT  XtripB       file
       ------------------------  ------------  ----------  ------  ------  ------  ------    -------------------
 >  1  NACA 0012                 9.000e6       0.000         9.00    9.00   1.000   1.000    

Enter polar output filename   s>  
.OPERva   c>  
 ==============================================================
 Polar  1
  
       XFOIL         Version 6.99
  
 Calculated polar for: NACA 0012                                       
  
 1 1 Reynolds number fixed          Mach number fixed         
  
 xtrf =   1.000 (top)        1.000 (bottom)  
 Mach =   0.000     Re =     9.000 e 6     Ncrit =   9.000  9.000
  
   alpha    CL        CD       CDp       CM     Top_Xtr  Bot_Xtr  Top_Itr  Bot_Itr
  ------ -------- --------- --------- -------- -------- -------- -------- --------
  16.434   1.7274   0.01738   0.00799   0.0133   0.0068   1.0000  73.0146 160.0000

.OPERva   c>  
 XFOIL   c>  