
 ===================================================
  XFOIL Version 6.99
  Copyright (C) 2000   Mark Drela, Harold Youngren

  This software comes with ABSOLUTELY NO WARRANTY,
    subject to the GNU General Public License.

  Caveat computor
 ===================================================

 File  xfoil.def  not found

   QUIT    Exit program

  .OPER    Direct operating point(s)
  .MDES    Complex mapping design routine
  .QDES    Surface speed design routine
  .GDES    Geometry design routine

   SAVE f  Write airfoil to labeled coordinate file
   PSAV f  Write airfoil to plain coordinate file
   ISAV f  Write airfoil to ISES coordinate file
   MSAV f  Write airfoil to MSES coordinate file
   REVE    Reverse written-airfoil node ordering
   DELI i  Change written-airfoil file delimiters

   LOAD f  Read buffer airfoil from coordinate file
   NACA i  Set NACA 4,5-digit airfoil and buffer airfoil
   INTE    Set buffer airfoil by interpolating two airfoils
   NORM    Buffer airfoil normalization toggle
   HALF    Halve the number of points in buffer airfoil
   XYCM rr Change CM reference location, currently  0.25000 0.00000

   BEND    Display structural properties of current airfoil

   PCOP    Set current-airfoil panel nodes directly from buffer airfoil points
   PANE    Set current-airfoil panel nodes ( 160 ) based on curvature
  .PPAR    Show/change paneling

  .PLOP    Plotting options

   WDEF f  Write  current-settings file
   RDEF f  Reread current-settings file
   NAME s  Specify new airfoil name
   NINC    Increment name version number

   Z       Zoom    | (available in all menus)
   U       Unzoom  | 

 XFOIL   c>   Max thickness =     0.120032  at x =   0.297
 Max camber    =    -0.000000  at x =   0.015

 Buffer airfoil set using 245 points

 Blunt trailing edge.  Gap =  0.00252

 Paneling parameters used...
   Number of panel nodes       160
   Panel bunching parameter    1.000
   TE/LE panel density ratio   0.150
   Refined-area/LE panel density ratio    0.200
   Top    side refined area x/c limits  1.000 1.000
   Bottom side refined area x/c limits  1.000 1.000

 XFOIL   c>  
 XFOIL   c>  
 XFOIL   c>  
 Blunt trailing edge.  Gap =  0.00252

 Paneling parameters used...
   Number of panel nodes       160
   Panel bunching parameter    1.000
   TE/LE panel density ratio   0.150
   Refined-area/LE panel density ratio    0.200
   Top    side refined area x/c limits  1.000 1.000
   Bottom side refined area x/c limits  1.000 1.000

 XFOIL   c>  
 XFOIL   c>  
 XFOIL   c>  
.OPERi   c>  
.OPERi   c>  
.OPERi   c>  
.OPERi   c>  
 M  =    0.0000
 Re =  0.9000E+07

.OPERv   c>  
 Polar  1 newly created for accumulation
 Airfoil archived with polar: NACA 0012                                       

Enter  polar save filename  OR  <return> for no file   s>  
 Polar save file will NOT be written

Enter  polar dump filename  OR  <return> for no file   s>  
 Polar dump file will NOT be written

 Polar accumulation enabled

.OPERva   c>   Calculating unit vorticity distributions ...
 Calculating wake trajectory ...
 Calculating source influence matrix ...

 Solving BL system ...

 Initializing BL ...
    side            1  ...
 MRCHUE: Inverse mode at  26     Hk =   7.459
 MRCHUE: Inverse mode at  27     Hk =   2.500
 MRCHUE: Inverse mode at  96     Hk =   2.500
 MRCHUE: Inverse mode at  97     Hk =   2.500
 MRCHUE: Inverse mode at  98     Hk =   2.500
    side            2  ...
 MRCHUE: Inverse mode at  61     Hk =   5.276
 MRCHUE: Inverse mode at  62     Hk =   7.179
 MRCHUE: Inverse mode at  63     Hk =   3.612
 MRCHUE: Inverse mode at  64     Hk =   2.500

 Side 1  free  transition at x/c =  0.0077   27
 Side 2  free  transition at x/c =  0.9867   63

   1   rms: 0.2268E+00   max: -.1292E+01   T at   63  2   RLX: 0.387
       a = 12.598      CL =  1.4734
      Cm = -0.0124     CD =  0.00827   =>   CDf =  0.00440    CDp =  0.00387

 Side 1  free  transition at x/c =  0.0082   27
 Side 2  free  transition at x/c =  0.9924   64

   2   rms: 0.1422E+00   max: -.1529E+01   T at   64  2   RLX: 0.327
       a = 12.598      CL =  1.4546
      Cm = -0.0096     CD =  0.00923   =>   CDf =  0.00441    CDp =  0.00482

 Side 1  free  transition at x/c =  0.0085   27
 Side 2 forced transition at x/c =  1.0000   64

   3   rms: 0.1417E+00   max: -.1772E+01   C at   64  2   RLX: 0.282
       a = 12.598      CL =  1.4318
      Cm = -0.0052     CD =  0.00986   =>   CDf =  0.00441    CDp =  0.00545

 Side 1  free  transition at x/c =  0.0087   27
 Side 2 forced transition at x/c =  1.0000   64

   4   rms: 0.6725E-01   max: -.4320E+00   D at   63  2
       a = 12.598      CL =  1.3909
      Cm =  0.0017     CD =  0.01158   =>   CDf =  0.00462    CDp =  0.00696

 Side 1  free  transition at x/c =  0.0107   27
 Side 2 forced transition at x/c =  1.0000   65

   5   rms: 0.1467E-01   max: 0.2177E+00   C at   65  2
       a = 12.598      CL =  1.3893
      Cm =  0.0022     CD =  0.01151   =>   CDf =  0.00434    CDp =  0.00716

 Side 1  free  transition at x/c =  0.0102   27
 Side 2 forced transition at x/c =  1.0000   65

   6   rms: 0.4124E-02   max: -.7384E-01   D at   27  1
       a = 12.598      CL =  1.3891
      Cm =  0.0022     CD =  0.01155   =>   CDf =  0.00434    CDp =  0.00721

 Side 1  free  transition at x/c =  0.0100   27
 Side 2 forced transition at x/c =  1.0000   65

   7   rms: 0.1752E-03   max: -.2963E-02   D at   27  1
       a = 12.598      CL =  1.3891
      Cm =  0.0022     CD =  0.01155   =>   CDf =  0.00435    CDp =  0.00720

 Side 1  free  transition at x/c =  0.0100   27
 Side 2 forced transition at x/c =  1.0000   65

   8   rms: 0.7529E-06   max: -.6773E-05   D at   27  1
       a = 12.598      CL =  1.3891
      Cm =  0.0022     CD =  0.01155   =>   CDf =  0.00435    CDp =  0.00720
      9.000    4.2798   0.011552   0.000366   0.000386   0.000019    0.0100     #

 Point added to stored polar  1
 Save file unspecified or not available
 Dump file unspecified or not available

.OPERva   c>  
.OPERva   c>  
.OPERva   c>  
        airfoil                    Re           Mach       NcritT  NcritB  XtripT  XtripB       file
       ------------------------  ------------  ----------  ------  ------  ------  ------    -------------------
 >  1  NACA 0012                 9.000e6       0.000         9.00    9.00   1.000   1.000    

Enter polar output filename   s>  
.OPERva   c>  
 ==============================================================
 Polar  1
  
       XFOIL         Version 6.99
  
 Calculated polar for: NACA 0012                                       
  
 1 1 Reynolds number fixed          Mach number fixed         
  
 xtrf =   1.000 (top)        1.000 (bottom)  
 Mach =   0.000     Re =     9.000 e 6     Ncrit =   9.000  9.000
  
   alpha    CL        CD       CDp       CM     Top_Xtr  Bot_Xtr  Top_Itr  Bot_Itr
  ------ -------- --------- --------- -------- -------- -------- -------- --------
  12.598   1.3891   0.01155   0.00463   0.0022   0.0100   1.0000  71.4530 160.0000

.OPERva   c>  
 XFOIL   c>  