
 ===================================================
  XFOIL Version 6.99
  Copyright (C) 2000   Mark Drela, Harold Youngren

  This software comes with ABSOLUTELY NO WARRANTY,
    subject to the GNU General Public License.

  Caveat computor
 ===================================================

 File  xfoil.def  not found

   QUIT    Exit program

  .OPER    Direct operating point(s)
  .MDES    Complex mapping design routine
  .QDES    Surface speed design routine
  .GDES    Geometry design routine

   SAVE f  Write airfoil to labeled coordinate file
   PSAV f  Write airfoil to plain coordinate file
   ISAV f  Write airfoil to ISES coordinate file
   MSAV f  Write airfoil to MSES coordinate file
   REVE    Reverse written-airfoil node ordering
   DELI i  Change written-airfoil file delimiters

   LOAD f  Read buffer airfoil from coordinate file
   NACA i  Set NACA 4,5-digit airfoil and buffer airfoil
   INTE    Set buffer airfoil by interpolating two airfoils
   NORM    Buffer airfoil normalization toggle
   HALF    Halve the number of points in buffer airfoil
   XYCM rr Change CM reference location, currently  0.25000 0.00000

   BEND    Display structural properties of current airfoil

   PCOP    Set current-airfoil panel nodes directly from buffer airfoil points
   PANE    Set current-airfoil panel nodes ( 160 ) based on curvature
  .PPAR    Show/change paneling

  .PLOP    Plotting options

   WDEF f  Write  current-settings file
   RDEF f  Reread current-settings file
   NAME s  Specify new airfoil name
   NINC    Increment name version number

   Z       Zoom    | (available in all menus)
   U       Unzoom  | 

 XFOIL   c>   Max thickness =     0.120032  at x =   0.297
 Max camber    =    -0.000000  at x =   0.018

 Buffer airfoil set using 245 points

 Blunt trailing edge.  Gap =  0.00252

 Paneling parameters used...
   Number of panel nodes       160
   Panel bunching parameter    1.000
   TE/LE panel density ratio   0.150
   Refined-area/LE panel density ratio    0.200
   Top    side refined area x/c limits  1.000 1.000
   Bottom side refined area x/c limits  1.000 1.000

 XFOIL   c>  
 You are working with the buffer airfoil

.GDES   c>  
Enter flap hinge x location   r>  
  Top    surface:  y =  0.0262     y/t = 1.0
  Bottom surface:  y = -0.0262     y/t = 0.0

Enter flap hinge y location (or 999 to specify y/t)   r>  
 Flap hinge: x,y =  0.80000  0.00000

Enter flap deflection in degrees (+ down)   r>  
 Top breaks: x,y =    0.80288  0.02591      0.80288  0.02591
 Bot breaks: x,y =    0.80061 -0.02616      0.80515 -0.02566
 Max thickness =     0.120108  at x =   0.302
 Max camber    =     0.027718  at x =   0.802

.GDES   c>  
 Current airfoil nodes set from buffer airfoil nodes ( 247 )

.GDES   c>  
 XFOIL   c>  
 XFOIL   c>  
 XFOIL   c>  
 Blunt trailing edge.  Gap =  0.00252

 Paneling parameters used...
   Number of panel nodes       160
   Panel bunching parameter    1.000
   TE/LE panel density ratio   0.150
   Refined-area/LE panel density ratio    0.200
   Top    side refined area x/c limits  1.000 1.000
   Bottom side refined area x/c limits  1.000 1.000

 XFOIL   c>  
 XFOIL   c>  
 XFOIL   c>  
.OPERi   c>  
.OPERi   c>  
.OPERi   c>  
.OPERi   c>  
 M  =    0.0000
 Re =  0.9000E+07

.OPERv   c>  
 Polar  1 newly created for accumulation
 Airfoil archived with polar: NACA 0012                                       

Enter  polar save filename  OR  <return> for no file   s>  
 Polar save file will NOT be written

Enter  polar dump filename  OR  <return> for no file   s>  
 Polar dump file will NOT be written

 Polar accumulation enabled

.OPERva   c>   Calculating unit vorticity distributions ...
 Calculating wake trajectory ...
 Calculating source influence matrix ...

 Solving BL system ...

 Initializing BL ...
    side            1  ...
 MRCHUE: Inverse mode at  28     Hk =   8.336
 MRCHUE: Inverse mode at  29     Hk =   2.500
 MRCHUE: Inverse mode at  95     Hk =   2.500
 MRCHUE: Inverse mode at  96     Hk =   2.500
 MRCHUE: Inverse mode at  97     Hk =   2.500
 MRCHUE: Inverse mode at  98     Hk =   2.500
 MRCHUE: Inverse mode at  99     Hk =   2.500
 MRCHUE: Inverse mode at 100     Hk =   2.500
 MRCHUE: Convergence failed at 101  side 1    Res =  0.5570E+01
    side            2  ...
 MRCHUE: Inverse mode at  43     Hk =   5.741
 MRCHUE: Inverse mode at  44     Hk =   7.733
 MRCHUE: Inverse mode at  45     Hk =   3.762
 MRCHUE: Inverse mode at  46     Hk =   2.500

 MRCHDU: Convergence failed at 101  side 1    Res =  0.5706E+01
 Side 1  free  transition at x/c =  0.0047   29
 Side 2  free  transition at x/c =  0.7838   45

   1   rms: 0.4370E+00   max: -.2163E+01   D at   29  1   RLX: 0.231
       a = 14.698      CL =  2.3549
      Cm = -0.1327     CD =  0.00828   =>   CDf =  0.00506    CDp =  0.00322

 Side 1  free  transition at x/c =  0.0052   29
 Side 2  free  transition at x/c =  0.7850   45

   2   rms: 0.3284E+00   max: 0.1423E+01   D at   66  2   RLX: 0.532
       a = 14.698      CL =  2.2437
      Cm = -0.1095     CD =  0.01287   =>   CDf =  0.00519    CDp =  0.00768

 Side 1  free  transition at x/c =  0.0057   29
 Side 2  free  transition at x/c =  0.7873   45

   3   rms: 0.2027E+00   max: 0.6422E+00   D at   70  2
       a = 14.698      CL =  2.0314
      Cm = -0.0663     CD =  0.01949   =>   CDf =  0.00552    CDp =  0.01397

 Side 1  free  transition at x/c =  0.0063   28
 Side 2  free  transition at x/c =  0.7900   47

   4   rms: 0.1010E+00   max: 0.4444E+00   D at   98  1
       a = 14.698      CL =  1.9393
      Cm = -0.0497     CD =  0.02161   =>   CDf =  0.00500    CDp =  0.01661

 Side 1  free  transition at x/c =  0.0063   28
 Side 2  free  transition at x/c =  0.7898   47

   5   rms: 0.2191E-01   max: 0.2237E+00   D at   69  2
       a = 14.698      CL =  1.9483
      Cm = -0.0516     CD =  0.02171   =>   CDf =  0.00491    CDp =  0.01680

 Side 1  free  transition at x/c =  0.0063   28
 Side 2  free  transition at x/c =  0.7896   47

   6   rms: 0.2460E-02   max: -.3936E-01   D at   69  2
       a = 14.698      CL =  1.9495
      Cm = -0.0518     CD =  0.02168   =>   CDf =  0.00491    CDp =  0.01678

 Side 1  free  transition at x/c =  0.0063   28
 Side 2  free  transition at x/c =  0.7895   47

   7   rms: 0.7123E-04   max: -.8067E-03   D at   70  2
       a = 14.698      CL =  1.9495
      Cm = -0.0518     CD =  0.02169   =>   CDf =  0.00491    CDp =  0.01678
      9.000    5.5446   0.021685   0.017266   0.000555  -0.016711    0.0063     #

 Point added to stored polar  1
 Save file unspecified or not available
 Dump file unspecified or not available

.OPERva   c>  
.OPERva   c>  
.OPERva   c>  
        airfoil                    Re           Mach       NcritT  NcritB  XtripT  XtripB       file
       ------------------------  ------------  ----------  ------  ------  ------  ------    -------------------
 >  1  NACA 0012                 9.000e6       0.000         9.00    9.00   1.000   1.000    

Enter polar output filename   s>  
.OPERva   c>  
 ==============================================================
 Polar  1
  
       XFOIL         Version 6.99
  
 Calculated polar for: NACA 0012                                       
  
 1 1 Reynolds number fixed          Mach number fixed         
  
 xtrf =   1.000 (top)        1.000 (bottom)  
 Mach =   0.000     Re =     9.000 e 6     Ncrit =   9.000  9.000
  
   alpha    CL        CD       CDp       CM     Top_Xtr  Bot_Xtr  Top_Itr  Bot_Itr
  ------ -------- --------- --------- -------- -------- -------- -------- --------
  14.698   1.9495   0.02169   0.00695  -0.0518   0.0063   0.7895  73.0196 144.0701

.OPERva   c>  
 XFOIL   c>  