
 ===================================================
  XFOIL Version 6.99
  Copyright (C) 2000   Mark Drela, Harold Youngren

  This software comes with ABSOLUTELY NO WARRANTY,
    subject to the GNU General Public License.

  Caveat computor
 ===================================================

 File  xfoil.def  not found

   QUIT    Exit program

  .OPER    Direct operating point(s)
  .MDES    Complex mapping design routine
  .QDES    Surface speed design routine
  .GDES    Geometry design routine

   SAVE f  Write airfoil to labeled coordinate file
   PSAV f  Write airfoil to plain coordinate file
   ISAV f  Write airfoil to ISES coordinate file
   MSAV f  Write airfoil to MSES coordinate file
   REVE    Reverse written-airfoil node ordering
   DELI i  Change written-airfoil file delimiters

   LOAD f  Read buffer airfoil from coordinate file
   NACA i  Set NACA 4,5-digit airfoil and buffer airfoil
   INTE    Set buffer airfoil by interpolating two airfoils
   NORM    Buffer airfoil normalization toggle
   HALF    Halve the number of points in buffer airfoil
   XYCM rr Change CM reference location, currently  0.25000 0.00000

   BEND    Display structural properties of current airfoil

   PCOP    Set current-airfoil panel nodes directly from buffer airfoil points
   PANE    Set current-airfoil panel nodes ( 160 ) based on curvature
  .PPAR    Show/change paneling

  .PLOP    Plotting options

   WDEF f  Write  current-settings file
   RDEF f  Reread current-settings file
   NAME s  Specify new airfoil name
   NINC    Increment name version number

   Z       Zoom    | (available in all menus)
   U       Unzoom  | 

 XFOIL   c>   Max thickness =     0.120032  at x =   0.297
 Max camber    =    -0.000000  at x =   0.018

 Buffer airfoil set using 245 points

 Blunt trailing edge.  Gap =  0.00252

 Paneling parameters used...
   Number of panel nodes       160
   Panel bunching parameter    1.000
   TE/LE panel density ratio   0.150
   Refined-area/LE panel density ratio    0.200
   Top    side refined area x/c limits  1.000 1.000
   Bottom side refined area x/c limits  1.000 1.000

 XFOIL   c>  
 XFOIL   c>  
 XFOIL   c>  
 Blunt trailing edge.  Gap =  0.00252

 Paneling parameters used...
   Number of panel nodes       160
   Panel bunching parameter    1.000
   TE/LE panel density ratio   0.150
   Refined-area/LE panel density ratio    0.200
   Top    side refined area x/c limits  1.000 1.000
   Bottom side refined area x/c limits  1.000 1.000

 XFOIL   c>  
 XFOIL   c>  
 XFOIL   c>  
.OPERi   c>  
.OPERi   c>  
.OPERi   c>  
.OPERi   c>  
 M  =    0.0000
 Re =  0.9000E+07

.OPERv   c>  
 Polar  1 newly created for accumulation
 Airfoil archived with polar: NACA 0012                                       

Enter  polar save filename  OR  <return> for no file   s>  
 Polar save file will NOT be written

Enter  polar dump filename  OR  <return> for no file   s>  
 Polar dump file will NOT be written

 Polar accumulation enabled

.OPERva   c>   Calculating unit vorticity distributions ...
 Calculating wake trajectory ...
 Calculating source influence matrix ...

 Solving BL system ...

 Initializing BL ...
    side            1  ...
 MRCHUE: Inverse mode at  30     Hk =   7.961
 MRCHUE: Inverse mode at  31     Hk =   2.500
 MRCHUE: Inverse mode at  90     Hk =   2.500
 MRCHUE: Inverse mode at  91     Hk =   2.500
 MRCHUE: Inverse mode at  92     Hk =   2.500
 MRCHUE: Inverse mode at  93     Hk =   2.500
 MRCHUE: Inverse mode at  94     Hk =   2.500
 MRCHUE: Inverse mode at  95     Hk =   2.500
 MRCHUE: Inverse mode at  96     Hk =   2.500
 MRCHUE: Inverse mode at  97     Hk =   2.500
 MRCHUE: Inverse mode at  98     Hk =   2.500
 MRCHUE: Inverse mode at  99     Hk =   2.500
 MRCHUE: Inverse mode at 100     Hk =   2.500
 MRCHUE: Inverse mode at 101     Hk =   2.500
 MRCHUE: Inverse mode at 102     Hk =   2.500
 MRCHUE: Convergence failed at 103  side 1    Res =  0.5840E+01
 MRCHUE: Convergence failed at 104  side 1    Res =  0.4509E+01
    side            2  ...
 MRCHUE: Inverse mode at  57     Hk =   4.883
 MRCHUE: Inverse mode at  58     Hk =   6.241

 MRCHDU: Convergence failed at 103  side 1    Res =  0.2436E+01
 MRCHDU: Convergence failed at 104  side 1    Res =  0.7455E+01
 Side 1  free  transition at x/c =  0.0041   31
 Side 2 forced transition at x/c =  1.0000   58

   1   rms: 0.8184E+00   max: -.9434E+01   C at   58  2   RLX: 0.053
       a = 20.000      CL =  2.3733
      Cm = -0.0481     CD =  0.00810   =>   CDf =  0.00406    CDp =  0.00404

 Side 1  free  transition at x/c =  0.0042   31
 Side 2 forced transition at x/c =  1.0000   58

   2   rms: 0.5680E+00   max: -.9004E+01   C at   58  2   RLX: 0.056
       a = 20.000      CL =  2.3596
      Cm = -0.0453     CD =  0.00873   =>   CDf =  0.00406    CDp =  0.00467

 Side 1  free  transition at x/c =  0.0042   31
 Side 2 forced transition at x/c =  1.0000   58

   3   rms: 0.4515E+00   max: -.5421E+01   C at   58  2   RLX: 0.092
       a = 20.000      CL =  2.3411
      Cm = -0.0417     CD =  0.00972   =>   CDf =  0.00407    CDp =  0.00565

 Side 1  free  transition at x/c =  0.0043   31
 Side 2 forced transition at x/c =  1.0000   58

   4   rms: 0.3829E+00   max: -.3625E+01   C at   58  2   RLX: 0.138
       a = 20.000      CL =  2.3141
      Cm = -0.0367     CD =  0.01120   =>   CDf =  0.00409    CDp =  0.00711

 Side 1  free  transition at x/c =  0.0044   31
 Side 2 forced transition at x/c =  1.0000   58

   5   rms: 0.3239E+00   max: -.2327E+01   C at   58  2   RLX: 0.215
       a = 20.000      CL =  2.2707
      Cm = -0.0287     CD =  0.01347   =>   CDf =  0.00410    CDp =  0.00937

 Side 1  free  transition at x/c =  0.0045   31
 Side 2 forced transition at x/c =  1.0000   58

   6   rms: 0.2728E+00   max: -.1291E+01   C at   58  2   RLX: 0.387
       a = 20.000      CL =  2.1878
      Cm = -0.0140     CD =  0.01734   =>   CDf =  0.00409    CDp =  0.01325

 Side 1  free  transition at x/c =  0.0048   31
 Side 2 forced transition at x/c =  1.0000   58

   7   rms: 0.3035E+00   max: -.2081E+01   C at   58  2   RLX: 0.240
       a = 20.000      CL =  2.1228
      Cm = -0.0042     CD =  0.02003   =>   CDf =  0.00441    CDp =  0.01562

 Side 1  free  transition at x/c =  0.0049   30
 Side 2 forced transition at x/c =  1.0000   59

   8   rms: 0.2785E+00   max: 0.9883E+00   D at   62  2
       a = 20.000      CL =  1.8622
      Cm =  0.0328     CD =  0.03014   =>   CDf =  0.00435    CDp =  0.02579

 Side 1  free  transition at x/c =  0.0065   30
 Side 2 forced transition at x/c =  1.0000   60

   9   rms: 0.5666E-01   max: 0.5279E+00   D at   67  2
       a = 20.000      CL =  1.8616
      Cm =  0.0329     CD =  0.03260   =>   CDf =  0.00374    CDp =  0.02886

 Side 1  free  transition at x/c =  0.0061   30
 Side 2 forced transition at x/c =  1.0000   60

  10   rms: 0.1433E-01   max: 0.1526E+00   D at   68  2
       a = 20.000      CL =  1.8626
      Cm =  0.0325     CD =  0.03244   =>   CDf =  0.00371    CDp =  0.02873

 Side 1  free  transition at x/c =  0.0059   30
 Side 2 forced transition at x/c =  1.0000   60

  11   rms: 0.1348E-02   max: -.1646E-01   D at   69  2
       a = 20.000      CL =  1.8627
      Cm =  0.0324     CD =  0.03241   =>   CDf =  0.00372    CDp =  0.02869

 Side 1  free  transition at x/c =  0.0058   30
 Side 2 forced transition at x/c =  1.0000   60

  12   rms: 0.3052E-04   max: -.3506E-03   D at   30  1
       a = 20.000      CL =  1.8627
      Cm =  0.0324     CD =  0.03241   =>   CDf =  0.00372    CDp =  0.02869
      9.000    7.1620   0.032411   0.018276   0.000612  -0.017664    0.0058     #

 Point added to stored polar  1
 Save file unspecified or not available
 Dump file unspecified or not available

.OPERva   c>  
.OPERva   c>  
.OPERva   c>  
        airfoil                    Re           Mach       NcritT  NcritB  XtripT  XtripB       file
       ------------------------  ------------  ----------  ------  ------  ------  ------    -------------------
 >  1  NACA 0012                 9.000e6       0.000         9.00    9.00   1.000   1.000    

Enter polar output filename   s>  
.OPERva   c>  
 ==============================================================
 Polar  1
  
       XFOIL         Version 6.99
  
 Calculated polar for: NACA 0012                                       
  
 1 1 Reynolds number fixed          Mach number fixed         
  
 xtrf =   1.000 (top)        1.000 (bottom)  
 Mach =   0.000     Re =     9.000 e 6     Ncrit =   9.000  9.000
  
   alpha    CL        CD       CDp       CM     Top_Xtr  Bot_Xtr  Top_Itr  Bot_Itr
  ------ -------- --------- --------- -------- -------- -------- -------- --------
  20.000   1.8627   0.03241   0.01625   0.0324   0.0058   1.0000  73.5446 160.0000

.OPERva   c>  
 XFOIL   c>  