
 ===================================================
  XFOIL Version 6.99
  Copyright (C) 2000   Mark Drela, Harold Youngren

  This software comes with ABSOLUTELY NO WARRANTY,
    subject to the GNU General Public License.

  Caveat computor
 ===================================================

 File  xfoil.def  not found

   QUIT    Exit program

  .OPER    Direct operating point(s)
  .MDES    Complex mapping design routine
  .QDES    Surface speed design routine
  .GDES    Geometry design routine

   SAVE f  Write airfoil to labeled coordinate file
   PSAV f  Write airfoil to plain coordinate file
   ISAV f  Write airfoil to ISES coordinate file
   MSAV f  Write airfoil to MSES coordinate file
   REVE    Reverse written-airfoil node ordering
   DELI i  Change written-airfoil file delimiters

   LOAD f  Read buffer airfoil from coordinate file
   NACA i  Set NACA 4,5-digit airfoil and buffer airfoil
   INTE    Set buffer airfoil by interpolating two airfoils
   NORM    Buffer airfoil normalization toggle
   HALF    Halve the number of points in buffer airfoil
   XYCM rr Change CM reference location, currently  0.25000 0.00000

   BEND    Display structural properties of current airfoil

   PCOP    Set current-airfoil panel nodes directly from buffer airfoil points
   PANE    Set current-airfoil panel nodes ( 160 ) based on curvature
  .PPAR    Show/change paneling

  .PLOP    Plotting options

   WDEF f  Write  current-settings file
   RDEF f  Reread current-settings file
   NAME s  Specify new airfoil name
   NINC    Increment name version number

   Z       Zoom    | (available in all menus)
   U       Unzoom  | 

 XFOIL   c>   Max thickness =     0.120032  at x =   0.297
 Max camber    =    -0.000000  at x =   0.018

 Buffer airfoil set using 245 points

 Blunt trailing edge.  Gap =  0.00252

 Paneling parameters used...
   Number of panel nodes       160
   Panel bunching parameter    1.000
   TE/LE panel density ratio   0.150
   Refined-area/LE panel density ratio    0.200
   Top    side refined area x/c limits  1.000 1.000
   Bottom side refined area x/c limits  1.000 1.000

 XFOIL   c>  
 XFOIL   c>  
 XFOIL   c>  
 Blunt trailing edge.  Gap =  0.00252

 Paneling parameters used...
   Number of panel nodes       160
   Panel bunching parameter    1.000
   TE/LE panel density ratio   0.150
   Refined-area/LE panel density ratio    0.200
   Top    side refined area x/c limits  1.000 1.000
   Bottom side refined area x/c limits  1.000 1.000

 XFOIL   c>  
 XFOIL   c>  
 XFOIL   c>  
.OPERi   c>  
.OPERi   c>  
.OPERi   c>  
.OPERi   c>  
 M  =    0.0000
 Re =  0.9000E+07

.OPERv   c>  
 Polar  1 newly created for accumulation
 Airfoil archived with polar: NACA 0012                                       

Enter  polar save filename  OR  <return> for no file   s>  
 Polar save file will NOT be written

Enter  polar dump filename  OR  <return> for no file   s>  
 Polar dump file will NOT be written

 Polar accumulation enabled

.OPERva   c>   Calculating unit vorticity distributions ...
 Calculating wake trajectory ...
 Calculating source influence matrix ...

 Solving BL system ...

 Initializing BL ...
    side            1  ...
 MRCHUE: Inverse mode at  27     Hk =   7.609
 MRCHUE: Inverse mode at  28     Hk =   2.500
 MRCHUE: Inverse mode at  96     Hk =   2.500
 MRCHUE: Inverse mode at  97     Hk =   2.500
 MRCHUE: Inverse mode at  98     Hk =   2.500
 MRCHUE: Inverse mode at  99     Hk =   2.500
 MRCHUE: Convergence failed at 100  side 1    Res =  0.5569E+01
    side            2  ...
 MRCHUE: Inverse mode at  60     Hk =   5.146
 MRCHUE: Inverse mode at  61     Hk =   6.846
 MRCHUE: Inverse mode at  62     Hk =   8.097

 MRCHDU: Convergence failed at 100  side 1    Res =  0.4807E+01
 Side 1  free  transition at x/c =  0.0059   28
 Side 2 forced transition at x/c =  1.0000   62

   1   rms: 0.4440E+00   max: -.4100E+01   D at   62  2   RLX: 0.122
       a = 15.067      CL =  1.7703
      Cm = -0.0174     CD =  0.00759   =>   CDf =  0.00438    CDp =  0.00321

 Side 1  free  transition at x/c =  0.0060   28
 Side 2 forced transition at x/c =  1.0000   62

   2   rms: 0.3631E+00   max: -.5703E+01   C at   62  2   RLX: 0.088
       a = 15.067      CL =  1.7557
      Cm = -0.0147     CD =  0.00809   =>   CDf =  0.00438    CDp =  0.00371

 Side 1  free  transition at x/c =  0.0061   28
 Side 2 forced transition at x/c =  1.0000   62

   3   rms: 0.2366E+00   max: -.2202E+01   C at   62  2   RLX: 0.227
       a = 15.067      CL =  1.7332
      Cm = -0.0112     CD =  0.00930   =>   CDf =  0.00438    CDp =  0.00492

 Side 1  free  transition at x/c =  0.0063   28
 Side 2 forced transition at x/c =  1.0000   62

   4   rms: 0.1687E+00   max: -.8980E+00   C at   62  2   RLX: 0.557
       a = 15.067      CL =  1.6861
      Cm = -0.0038     CD =  0.01191   =>   CDf =  0.00438    CDp =  0.00753

 Side 1  free  transition at x/c =  0.0068   29
 Side 2 forced transition at x/c =  1.0000   62

   5   rms: 0.7589E-01   max: -.3186E+00   D at   27  1
       a = 15.067      CL =  1.6266
      Cm =  0.0065     CD =  0.01454   =>   CDf =  0.00437    CDp =  0.01017

 Side 1  free  transition at x/c =  0.0095   30
 Side 2 forced transition at x/c =  1.0000   62

   6   rms: 0.8098E-01   max: -.1415E+01   D at   30  1   RLX: 0.353
       a = 15.067      CL =  1.6246
      Cm =  0.0076     CD =  0.01488   =>   CDf =  0.00428    CDp =  0.01060

 Side 1  free  transition at x/c =  0.0087   29
 Side 2 forced transition at x/c =  1.0000   62

   7   rms: 0.2230E-01   max: -.1219E+00   C at   30  1
       a = 15.067      CL =  1.6220
      Cm =  0.0075     CD =  0.01468   =>   CDf =  0.00428    CDp =  0.01040

 Side 1  free  transition at x/c =  0.0081   29
 Side 2 forced transition at x/c =  1.0000   62

   8   rms: 0.4111E-02   max: -.7535E-01   D at   29  1
       a = 15.067      CL =  1.6201
      Cm =  0.0078     CD =  0.01484   =>   CDf =  0.00429    CDp =  0.01055

 Side 1  free  transition at x/c =  0.0079   29
 Side 2 forced transition at x/c =  1.0000   62

   9   rms: 0.1907E-03   max: -.3094E-02   D at   29  1
       a = 15.067      CL =  1.6200
      Cm =  0.0078     CD =  0.01484   =>   CDf =  0.00429    CDp =  0.01055

 Side 1  free  transition at x/c =  0.0079   29
 Side 2 forced transition at x/c =  1.0000   62

  10   rms: 0.8825E-06   max: -.9278E-05   D at   29  1
       a = 15.067      CL =  1.6200
      Cm =  0.0078     CD =  0.01484   =>   CDf =  0.00429    CDp =  0.01055
      9.000    4.5062   0.014840   0.000432   0.000468   0.000037    0.0079     #

 Point added to stored polar  1
 Save file unspecified or not available
 Dump file unspecified or not available

.OPERva   c>  
.OPERva   c>  
.OPERva   c>  
        airfoil                    Re           Mach       NcritT  NcritB  XtripT  XtripB       file
       ------------------------  ------------  ----------  ------  ------  ------  ------    -------------------
 >  1  NACA 0012                 9.000e6       0.000         9.00    9.00   1.000   1.000    

Enter polar output filename   s>  
.OPERva   c>  
 ==============================================================
 Polar  1
  
       XFOIL         Version 6.99
  
 Calculated polar for: NACA 0012                                       
  
 1 1 Reynolds number fixed          Mach number fixed         
  
 xtrf =   1.000 (top)        1.000 (bottom)  
 Mach =   0.000     Re =     9.000 e 6     Ncrit =   9.000  9.000
  
   alpha    CL        CD       CDp       CM     Top_Xtr  Bot_Xtr  Top_Itr  Bot_Itr
  ------ -------- --------- --------- -------- -------- -------- -------- --------
  15.067   1.6200   0.01484   0.00658   0.0078   0.0079   1.0000  72.4197 160.0000

.OPERva   c>  
 XFOIL   c>  