
 ===================================================
  XFOIL Version 6.99
  Copyright (C) 2000   Mark Drela, Harold Youngren

  This software comes with ABSOLUTELY NO WARRANTY,
    subject to the GNU General Public License.

  Caveat computor
 ===================================================

 File  xfoil.def  not found

   QUIT    Exit program

  .OPER    Direct operating point(s)
  .MDES    Complex mapping design routine
  .QDES    Surface speed design routine
  .GDES    Geometry design routine

   SAVE f  Write airfoil to labeled coordinate file
   PSAV f  Write airfoil to plain coordinate file
   ISAV f  Write airfoil to ISES coordinate file
   MSAV f  Write airfoil to MSES coordinate file
   REVE    Reverse written-airfoil node ordering
   DELI i  Change written-airfoil file delimiters

   LOAD f  Read buffer airfoil from coordinate file
   NACA i  Set NACA 4,5-digit airfoil and buffer airfoil
   INTE    Set buffer airfoil by interpolating two airfoils
   NORM    Buffer airfoil normalization toggle
   HALF    Halve the number of points in buffer airfoil
   XYCM rr Change CM reference location, currently  0.25000 0.00000

   BEND    Display structural properties of current airfoil

   PCOP    Set current-airfoil panel nodes directly from buffer airfoil points
   PANE    Set current-airfoil panel nodes ( 160 ) based on curvature
  .PPAR    Show/change paneling

  .PLOP    Plotting options

   WDEF f  Write  current-settings file
   RDEF f  Reread current-settings file
   NAME s  Specify new airfoil name
   NINC    Increment name version number

   Z       Zoom    | (available in all menus)
   U       Unzoom  | 

 XFOIL   c>   Max thickness =     0.120032  at x =   0.297
 Max camber    =    -0.000000  at x =   0.015

 Buffer airfoil set using 245 points

 Blunt trailing edge.  Gap =  0.00252

 Paneling parameters used...
   Number of panel nodes       160
   Panel bunching parameter    1.000
   TE/LE panel density ratio   0.150
   Refined-area/LE panel density ratio    0.200
   Top    side refined area x/c limits  1.000 1.000
   Bottom side refined area x/c limits  1.000 1.000

 XFOIL   c>  
 XFOIL   c>  
 XFOIL   c>  
 Blunt trailing edge.  Gap =  0.00252

 Paneling parameters used...
   Number of panel nodes       160
   Panel bunching parameter    1.000
   TE/LE panel density ratio   0.150
   Refined-area/LE panel density ratio    0.200
   Top    side refined area x/c limits  1.000 1.000
   Bottom side refined area x/c limits  1.000 1.000

 XFOIL   c>  
 XFOIL   c>  
 XFOIL   c>  
.OPERi   c>  
.OPERi   c>  
.OPERi   c>  
.OPERi   c>  
 M  =    0.0000
 Re =  0.9000E+07

.OPERv   c>  
 Polar  1 newly created for accumulation
 Airfoil archived with polar: NACA 0012                                       

Enter  polar save filename  OR  <return> for no file   s>  
 Polar save file will NOT be written

Enter  polar dump filename  OR  <return> for no file   s>  
 Polar dump file will NOT be written

 Polar accumulation enabled

.OPERva   c>   Calculating unit vorticity distributions ...
 Calculating wake trajectory ...
 Calculating source influence matrix ...

 Solving BL system ...

 Initializing BL ...
    side            1  ...
 MRCHUE: Inverse mode at  29     Hk =   7.977
 MRCHUE: Inverse mode at  30     Hk =   2.500
 MRCHUE: Inverse mode at  96     Hk =   2.500
 MRCHUE: Inverse mode at  97     Hk =   2.500
 MRCHUE: Inverse mode at  98     Hk =   2.500
 MRCHUE: Inverse mode at  99     Hk =   2.500
 MRCHUE: Inverse mode at 100     Hk =   2.500
 MRCHUE: Inverse mode at 101     Hk =   2.500
 MRCHUE: Convergence failed at 102  side 1    Res =  0.1003E+02
    side            2  ...
 MRCHUE: Inverse mode at  58     Hk =   5.011
 MRCHUE: Inverse mode at  59     Hk =   6.777
 MRCHUE: Inverse mode at  60     Hk =   8.074

 MRCHDU: Convergence failed at 102  side 1    Res =  0.7440E+01
 Side 1  free  transition at x/c =  0.0054   30
 Side 2 forced transition at x/c =  1.0000   60

   1   rms: 0.5463E+00   max: -.5498E+01   D at   60  2   RLX: 0.091
       a = 16.795      CL =  1.9753
      Cm = -0.0246     CD =  0.00782   =>   CDf =  0.00419    CDp =  0.00363

 Side 1  free  transition at x/c =  0.0055   30
 Side 2 forced transition at x/c =  1.0000   60

   2   rms: 0.5057E+00   max: -.8716E+01   C at   60  2   RLX: 0.057
       a = 16.795      CL =  1.9625
      Cm = -0.0221     CD =  0.00823   =>   CDf =  0.00422    CDp =  0.00401

 Side 1  free  transition at x/c =  0.0055   30
 Side 2 forced transition at x/c =  1.0000   60

   3   rms: 0.3194E+00   max: -.3693E+01   C at   60  2   RLX: 0.135
       a = 16.795      CL =  1.9448
      Cm = -0.0190     CD =  0.00914   =>   CDf =  0.00453    CDp =  0.00461

 Side 1  free  transition at x/c =  0.0056   29
 Side 2 forced transition at x/c =  1.0000   61

   4   rms: 0.2518E+01   max: -.4428E+02   D at    2  2   RLX: 0.011
       a = 16.795      CL =  1.9435
      Cm = -0.0187     CD =  0.00927   =>   CDf =  0.00425    CDp =  0.00501

 Side 1  free  transition at x/c =  0.0056   29
 Side 2 forced transition at x/c =  1.0000   61

   5   rms: 0.2484E+00   max: -.1944E+01   C at   61  2   RLX: 0.257
       a = 16.795      CL =  1.9138
      Cm = -0.0137     CD =  0.01091   =>   CDf =  0.00426    CDp =  0.00665

 Side 1  free  transition at x/c =  0.0059   29
 Side 2 forced transition at x/c =  1.0000   61

   6   rms: 0.1782E+00   max: -.8100E+00   C at   61  2   RLX: 0.617
       a = 16.795      CL =  1.8469
      Cm = -0.0020     CD =  0.01441   =>   CDf =  0.00428    CDp =  0.01013

 Side 1  free  transition at x/c =  0.0064   29
 Side 2 forced transition at x/c =  1.0000   61

   7   rms: 0.8382E-01   max: 0.2843E+00   D at   71  2
       a = 16.795      CL =  1.7651
      Cm =  0.0129     CD =  0.01773   =>   CDf =  0.00427    CDp =  0.01346

 Side 1  free  transition at x/c =  0.0067   29
 Side 2 forced transition at x/c =  1.0000   61

   8   rms: 0.1159E-01   max: 0.6722E-01   D at   63  2
       a = 16.795      CL =  1.7535
      Cm =  0.0150     CD =  0.01807   =>   CDf =  0.00420    CDp =  0.01387

 Side 1  free  transition at x/c =  0.0067   29
 Side 2 forced transition at x/c =  1.0000   61

   9   rms: 0.4509E-02   max: -.4332E-01   C at   61  2
       a = 16.795      CL =  1.7498
      Cm =  0.0158     CD =  0.01805   =>   CDf =  0.00419    CDp =  0.01386

 Side 1  free  transition at x/c =  0.0067   29
 Side 2 forced transition at x/c =  1.0000   61

  10   rms: 0.2572E-03   max: -.4923E-02   C at   61  2
       a = 16.795      CL =  1.7497
      Cm =  0.0158     CD =  0.01805   =>   CDf =  0.00418    CDp =  0.01387

 Side 1  free  transition at x/c =  0.0067   29
 Side 2 forced transition at x/c =  1.0000   61

  11   rms: 0.9136E-06   max: 0.1924E-04   D at  100  1
       a = 16.795      CL =  1.7497
      Cm =  0.0158     CD =  0.01805   =>   CDf =  0.00418    CDp =  0.01387
      9.000    4.3739   0.018049   0.000476   0.000547   0.000071    0.0067     #

 Point added to stored polar  1
 Save file unspecified or not available
 Dump file unspecified or not available

.OPERva   c>  
.OPERva   c>  
.OPERva   c>  
        airfoil                    Re           Mach       NcritT  NcritB  XtripT  XtripB       file
       ------------------------  ------------  ----------  ------  ------  ------  ------    -------------------
 >  1  NACA 0012                 9.000e6       0.000         9.00    9.00   1.000   1.000    

Enter polar output filename   s>  
.OPERva   c>  
 ==============================================================
 Polar  1
  
       XFOIL         Version 6.99
  
 Calculated polar for: NACA 0012                                       
  
 1 1 Reynolds number fixed          Mach number fixed         
  
 xtrf =   1.000 (top)        1.000 (bottom)  
 Mach =   0.000     Re =     9.000 e 6     Ncrit =   9.000  9.000
  
   alpha    CL        CD       CDp       CM     Top_Xtr  Bot_Xtr  Top_Itr  Bot_Itr
  ------ -------- --------- --------- -------- -------- -------- -------- --------
  16.795   1.7497   0.01805   0.00831   0.0158   0.0067   1.0000  73.0360 160.0000

.OPERva   c>  
 XFOIL   c>  