
 ===================================================
  XFOIL Version 6.99
  Copyright (C) 2000   Mark Drela, Harold Youngren

  This software comes with ABSOLUTELY NO WARRANTY,
    subject to the GNU General Public License.

  Caveat computor
 ===================================================

 File  xfoil.def  not found

   QUIT    Exit program

  .OPER    Direct operating point(s)
  .MDES    Complex mapping design routine
  .QDES    Surface speed design routine
  .GDES    Geometry design routine

   SAVE f  Write airfoil to labeled coordinate file
   PSAV f  Write airfoil to plain coordinate file
   ISAV f  Write airfoil to ISES coordinate file
   MSAV f  Write airfoil to MSES coordinate file
   REVE    Reverse written-airfoil node ordering
   DELI i  Change written-airfoil file delimiters

   LOAD f  Read buffer airfoil from coordinate file
   NACA i  Set NACA 4,5-digit airfoil and buffer airfoil
   INTE    Set buffer airfoil by interpolating two airfoils
   NORM    Buffer airfoil normalization toggle
   HALF    Halve the number of points in buffer airfoil
   XYCM rr Change CM reference location, currently  0.25000 0.00000

   BEND    Display structural properties of current airfoil

   PCOP    Set current-airfoil panel nodes directly from buffer airfoil points
   PANE    Set current-airfoil panel nodes ( 160 ) based on curvature
  .PPAR    Show/change paneling

  .PLOP    Plotting options

   WDEF f  Write  current-settings file
   RDEF f  Reread current-settings file
   NAME s  Specify new airfoil name
   NINC    Increment name version number

   Z       Zoom    | (available in all menus)
   U       Unzoom  | 

 XFOIL   c>   Max thickness =     0.120032  at x =   0.297
 Max camber    =    -0.000000  at x =   0.018

 Buffer airfoil set using 245 points

 Blunt trailing edge.  Gap =  0.00252

 Paneling parameters used...
   Number of panel nodes       160
   Panel bunching parameter    1.000
   TE/LE panel density ratio   0.150
   Refined-area/LE panel density ratio    0.200
   Top    side refined area x/c limits  1.000 1.000
   Bottom side refined area x/c limits  1.000 1.000

 XFOIL   c>  
 XFOIL   c>  
 XFOIL   c>  
 Blunt trailing edge.  Gap =  0.00252

 Paneling parameters used...
   Number of panel nodes       160
   Panel bunching parameter    1.000
   TE/LE panel density ratio   0.150
   Refined-area/LE panel density ratio    0.200
   Top    side refined area x/c limits  1.000 1.000
   Bottom side refined area x/c limits  1.000 1.000

 XFOIL   c>  
 XFOIL   c>  
 XFOIL   c>  
.OPERi   c>  
.OPERi   c>  
.OPERi   c>  
.OPERi   c>  
 M  =    0.0000
 Re =  0.9000E+07

.OPERv   c>  
 Polar  1 newly created for accumulation
 Airfoil archived with polar: NACA 0012                                       

Enter  polar save filename  OR  <return> for no file   s>  
 Polar save file will NOT be written

Enter  polar dump filename  OR  <return> for no file   s>  
 Polar dump file will NOT be written

 Polar accumulation enabled

.OPERva   c>   Calculating unit vorticity distributions ...
 Calculating wake trajectory ...
 Calculating source influence matrix ...

 Solving BL system ...

 Initializing BL ...
    side            1  ...
 MRCHUE: Inverse mode at  29     Hk =   7.987
 MRCHUE: Inverse mode at  30     Hk =   2.500
 MRCHUE: Inverse mode at  96     Hk =   2.500
 MRCHUE: Inverse mode at  97     Hk =   2.500
 MRCHUE: Inverse mode at  98     Hk =   2.500
 MRCHUE: Inverse mode at  99     Hk =   2.500
 MRCHUE: Inverse mode at 100     Hk =   2.500
 MRCHUE: Inverse mode at 101     Hk =   2.500
 MRCHUE: Convergence failed at 102  side 1    Res =  0.1003E+02
    side            2  ...
 MRCHUE: Inverse mode at  58     Hk =   5.014
 MRCHUE: Inverse mode at  59     Hk =   6.780
 MRCHUE: Inverse mode at  60     Hk =   8.077

 MRCHDU: Convergence failed at 102  side 1    Res =  0.7437E+01
 Side 1  free  transition at x/c =  0.0053   30
 Side 2 forced transition at x/c =  1.0000   60

   1   rms: 0.5476E+00   max: -.5515E+01   D at   60  2   RLX: 0.091
       a = 16.808      CL =  1.9767
      Cm = -0.0247     CD =  0.00784   =>   CDf =  0.00419    CDp =  0.00365

 Side 1  free  transition at x/c =  0.0055   30
 Side 2 forced transition at x/c =  1.0000   60

   2   rms: 0.5085E+00   max: -.8779E+01   C at   60  2   RLX: 0.057
       a = 16.808      CL =  1.9640
      Cm = -0.0221     CD =  0.00825   =>   CDf =  0.00421    CDp =  0.00403

 Side 1  free  transition at x/c =  0.0055   30
 Side 2 forced transition at x/c =  1.0000   60

   3   rms: 0.3205E+00   max: -.3723E+01   C at   60  2   RLX: 0.134
       a = 16.808      CL =  1.9463
      Cm = -0.0190     CD =  0.00915   =>   CDf =  0.00423    CDp =  0.00493

 Side 1  free  transition at x/c =  0.0056   30
 Side 2 forced transition at x/c =  1.0000   60

   4   rms: 0.2524E+00   max: -.2027E+01   C at   60  2   RLX: 0.247
       a = 16.808      CL =  1.9176
      Cm = -0.0141     CD =  0.01079   =>   CDf =  0.00455    CDp =  0.00623

 Side 1  free  transition at x/c =  0.0058   29
 Side 2 forced transition at x/c =  1.0000   61

   5   rms: 0.1851E+00   max: -.8799E+00   C at   61  2   RLX: 0.568
       a = 16.808      CL =  1.8554
      Cm = -0.0033     CD =  0.01407   =>   CDf =  0.00428    CDp =  0.00979

 Side 1  free  transition at x/c =  0.0064   29
 Side 2 forced transition at x/c =  1.0000   61

   6   rms: 0.9238E-01   max: 0.3314E+00   D at   70  2
       a = 16.808      CL =  1.7692
      Cm =  0.0123     CD =  0.01766   =>   CDf =  0.00427    CDp =  0.01339

 Side 1  free  transition at x/c =  0.0067   29
 Side 2 forced transition at x/c =  1.0000   61

   7   rms: 0.1357E-01   max: 0.7477E-01   D at   63  2
       a = 16.808      CL =  1.7549
      Cm =  0.0150     CD =  0.01810   =>   CDf =  0.00420    CDp =  0.01390

 Side 1  free  transition at x/c =  0.0067   29
 Side 2 forced transition at x/c =  1.0000   61

   8   rms: 0.5187E-02   max: -.4294E-01   C at   61  2
       a = 16.808      CL =  1.7504
      Cm =  0.0159     CD =  0.01808   =>   CDf =  0.00419    CDp =  0.01389

 Side 1  free  transition at x/c =  0.0067   29
 Side 2 forced transition at x/c =  1.0000   61

   9   rms: 0.3066E-03   max: -.5823E-02   C at   61  2
       a = 16.808      CL =  1.7504
      Cm =  0.0159     CD =  0.01808   =>   CDf =  0.00418    CDp =  0.01390

 Side 1  free  transition at x/c =  0.0067   29
 Side 2 forced transition at x/c =  1.0000   61

  10   rms: 0.1497E-05   max: 0.2713E-04   D at  100  1
       a = 16.808      CL =  1.7504
      Cm =  0.0159     CD =  0.01808   =>   CDf =  0.00418    CDp =  0.01390
      9.000    4.3962   0.018080   0.000477   0.000549   0.000071    0.0067     #

 Point added to stored polar  1
 Save file unspecified or not available
 Dump file unspecified or not available

.OPERva   c>  
.OPERva   c>  
.OPERva   c>  
        airfoil                    Re           Mach       NcritT  NcritB  XtripT  XtripB       file
       ------------------------  ------------  ----------  ------  ------  ------  ------    -------------------
 >  1  NACA 0012                 9.000e6       0.000         9.00    9.00   1.000   1.000    

Enter polar output filename   s>  
.OPERva   c>  
 ==============================================================
 Polar  1
  
       XFOIL         Version 6.99
  
 Calculated polar for: NACA 0012                                       
  
 1 1 Reynolds number fixed          Mach number fixed         
  
 xtrf =   1.000 (top)        1.000 (bottom)  
 Mach =   0.000     Re =     9.000 e 6     Ncrit =   9.000  9.000
  
   alpha    CL        CD       CDp       CM     Top_Xtr  Bot_Xtr  Top_Itr  Bot_Itr
  ------ -------- --------- --------- -------- -------- -------- -------- --------
  16.808   1.7504   0.01808   0.00832   0.0159   0.0067   1.0000  73.0355 160.0000

.OPERva   c>  
 XFOIL   c>  