
 ===================================================
  XFOIL Version 6.99
  Copyright (C) 2000   Mark Drela, Harold Youngren

  This software comes with ABSOLUTELY NO WARRANTY,
    subject to the GNU General Public License.

  Caveat computor
 ===================================================

 File  xfoil.def  not found

   QUIT    Exit program

  .OPER    Direct operating point(s)
  .MDES    Complex mapping design routine
  .QDES    Surface speed design routine
  .GDES    Geometry design routine

   SAVE f  Write airfoil to labeled coordinate file
   PSAV f  Write airfoil to plain coordinate file
   ISAV f  Write airfoil to ISES coordinate file
   MSAV f  Write airfoil to MSES coordinate file
   REVE    Reverse written-airfoil node ordering
   DELI i  Change written-airfoil file delimiters

   LOAD f  Read buffer airfoil from coordinate file
   NACA i  Set NACA 4,5-digit airfoil and buffer airfoil
   INTE    Set buffer airfoil by interpolating two airfoils
   NORM    Buffer airfoil normalization toggle
   HALF    Halve the number of points in buffer airfoil
   XYCM rr Change CM reference location, currently  0.25000 0.00000

   BEND    Display structural properties of current airfoil

   PCOP    Set current-airfoil panel nodes directly from buffer airfoil points
   PANE    Set current-airfoil panel nodes ( 160 ) based on curvature
  .PPAR    Show/change paneling

  .PLOP    Plotting options

   WDEF f  Write  current-settings file
   RDEF f  Reread current-settings file
   NAME s  Specify new airfoil name
   NINC    Increment name version number

   Z       Zoom    | (available in all menus)
   U       Unzoom  | 

 XFOIL   c>   Max thickness =     0.120032  at x =   0.297
 Max camber    =    -0.000000  at x =   0.015

 Buffer airfoil set using 245 points

 Blunt trailing edge.  Gap =  0.00252

 Paneling parameters used...
   Number of panel nodes       160
   Panel bunching parameter    1.000
   TE/LE panel density ratio   0.150
   Refined-area/LE panel density ratio    0.200
   Top    side refined area x/c limits  1.000 1.000
   Bottom side refined area x/c limits  1.000 1.000

 XFOIL   c>  
 XFOIL   c>  
 XFOIL   c>  
 Blunt trailing edge.  Gap =  0.00252

 Paneling parameters used...
   Number of panel nodes       160
   Panel bunching parameter    1.000
   TE/LE panel density ratio   0.150
   Refined-area/LE panel density ratio    0.200
   Top    side refined area x/c limits  1.000 1.000
   Bottom side refined area x/c limits  1.000 1.000

 XFOIL   c>  
 XFOIL   c>  
 XFOIL   c>  
.OPERi   c>  
.OPERi   c>  
.OPERi   c>  
.OPERi   c>  
 M  =    0.0000
 Re =  0.9000E+07

.OPERv   c>  
 Polar  1 newly created for accumulation
 Airfoil archived with polar: NACA 0012                                       

Enter  polar save filename  OR  <return> for no file   s>  
 Polar save file will NOT be written

Enter  polar dump filename  OR  <return> for no file   s>  
 Polar dump file will NOT be written

 Polar accumulation enabled

.OPERva   c>   Calculating unit vorticity distributions ...
 Calculating wake trajectory ...
 Calculating source influence matrix ...

 Solving BL system ...

 Initializing BL ...
    side            1  ...
 MRCHUE: Inverse mode at  25     Hk =   7.556
 MRCHUE: Inverse mode at  26     Hk =   2.500
 MRCHUE: Inverse mode at  95     Hk =   2.500
    side            2  ...
 MRCHUE: Inverse mode at  63     Hk =   5.569
 MRCHUE: Inverse mode at  64     Hk =   2.500

 Side 1  free  transition at x/c =  0.0114   26
 Side 2  free  transition at x/c =  0.9550   64

   1   rms: 0.1968E+00   max: -.1268E+01   D at   26  1   RLX: 0.394
       a =  9.827      CL =  1.1556
      Cm = -0.0109     CD =  0.00698   =>   CDf =  0.00435    CDp =  0.00263

 MRCHDU: Convergence failed at  26  side 1    Res =  0.1024E+02
 Side 1  free  transition at x/c =  0.0125   26
 Side 2  free  transition at x/c =  0.9654   64

   2   rms: 0.1044E+00   max: -.5232E+00   D at   67  2   RLX: 0.956
       a =  9.827      CL =  1.1028
      Cm = -0.0006     CD =  0.00872   =>   CDf =  0.00455    CDp =  0.00416

 MRCHDU: Convergence failed at  68  side 2    Res =  0.2357E+01
 Side 1  free  transition at x/c =  0.0157   26
 Side 2 forced transition at x/c =  1.0000   68

   3   rms: 0.6003E-01   max: 0.8059E+00   C at   68  2
       a =  9.827      CL =  1.1102
      Cm = -0.0024     CD =  0.00887   =>   CDf =  0.00413    CDp =  0.00473

 Side 1  free  transition at x/c =  0.0146   27
 Side 2  free  transition at x/c =  0.9929   67

   4   rms: 0.3278E-01   max: -.5468E+00   D at   67  2   RLX: 0.914
       a =  9.827      CL =  1.0957
      Cm =  0.0009     CD =  0.00882   =>   CDf =  0.00446    CDp =  0.00436

 Side 1  free  transition at x/c =  0.0146   26
 Side 2  free  transition at x/c =  0.9976   68

   5   rms: 0.4727E-02   max: 0.6421E-01   T at   68  2
       a =  9.827      CL =  1.0955
      Cm =  0.0009     CD =  0.00884   =>   CDf =  0.00429    CDp =  0.00455

 Side 1  free  transition at x/c =  0.0146   26
 Side 2  free  transition at x/c =  0.9950   68

   6   rms: 0.1096E-02   max: -.2217E-01   C at   68  2
       a =  9.827      CL =  1.0953
      Cm =  0.0009     CD =  0.00884   =>   CDf =  0.00429    CDp =  0.00455

 Side 1  free  transition at x/c =  0.0146   26
 Side 2  free  transition at x/c =  0.9953   68

   7   rms: 0.2271E-04   max: -.4753E-03   C at   68  2
       a =  9.827      CL =  1.0953
      Cm =  0.0009     CD =  0.00884   =>   CDf =  0.00429    CDp =  0.00455
      9.000    3.9470   0.008843   0.000000   0.000000   0.000000    0.0146     #

 Point added to stored polar  1
 Save file unspecified or not available
 Dump file unspecified or not available

.OPERva   c>  
.OPERva   c>  
.OPERva   c>  
        airfoil                    Re           Mach       NcritT  NcritB  XtripT  XtripB       file
       ------------------------  ------------  ----------  ------  ------  ------  ------    -------------------
 >  1  NACA 0012                 9.000e6       0.000         9.00    9.00   1.000   1.000    

Enter polar output filename   s>  
.OPERva   c>  
 ==============================================================
 Polar  1
  
       XFOIL         Version 6.99
  
 Calculated polar for: NACA 0012                                       
  
 1 1 Reynolds number fixed          Mach number fixed         
  
 xtrf =   1.000 (top)        1.000 (bottom)  
 Mach =   0.000     Re =     9.000 e 6     Ncrit =   9.000  9.000
  
   alpha    CL        CD       CDp       CM     Top_Xtr  Bot_Xtr  Top_Itr  Bot_Itr
  ------ -------- --------- --------- -------- -------- -------- -------- --------
   9.827   1.0953   0.00884   0.00295   0.0009   0.0146   0.9953  69.6823 159.4388

.OPERva   c>  
 XFOIL   c>  