
 ===================================================
  XFOIL Version 6.99
  Copyright (C) 2000   Mark Drela, Harold Youngren

  This software comes with ABSOLUTELY NO WARRANTY,
    subject to the GNU General Public License.

  Caveat computor
 ===================================================

 File  xfoil.def  not found

   QUIT    Exit program

  .OPER    Direct operating point(s)
  .MDES    Complex mapping design routine
  .QDES    Surface speed design routine
  .GDES    Geometry design routine

   SAVE f  Write airfoil to labeled coordinate file
   PSAV f  Write airfoil to plain coordinate file
   ISAV f  Write airfoil to ISES coordinate file
   MSAV f  Write airfoil to MSES coordinate file
   REVE    Reverse written-airfoil node ordering
   DELI i  Change written-airfoil file delimiters

   LOAD f  Read buffer airfoil from coordinate file
   NACA i  Set NACA 4,5-digit airfoil and buffer airfoil
   INTE    Set buffer airfoil by interpolating two airfoils
   NORM    Buffer airfoil normalization toggle
   HALF    Halve the number of points in buffer airfoil
   XYCM rr Change CM reference location, currently  0.25000 0.00000

   BEND    Display structural properties of current airfoil

   PCOP    Set current-airfoil panel nodes directly from buffer airfoil points
   PANE    Set current-airfoil panel nodes ( 160 ) based on curvature
  .PPAR    Show/change paneling

  .PLOP    Plotting options

   WDEF f  Write  current-settings file
   RDEF f  Reread current-settings file
   NAME s  Specify new airfoil name
   NINC    Increment name version number

   Z       Zoom    | (available in all menus)
   U       Unzoom  | 

 XFOIL   c>   Max thickness =     0.120032  at x =   0.297
 Max camber    =    -0.000000  at x =   0.018

 Buffer airfoil set using 245 points

 Blunt trailing edge.  Gap =  0.00252

 Paneling parameters used...
   Number of panel nodes       160
   Panel bunching parameter    1.000
   TE/LE panel density ratio   0.150
   Refined-area/LE panel density ratio    0.200
   Top    side refined area x/c limits  1.000 1.000
   Bottom side refined area x/c limits  1.000 1.000

 XFOIL   c>  
 XFOIL   c>  
 XFOIL   c>  
 Blunt trailing edge.  Gap =  0.00252

 Paneling parameters used...
   Number of panel nodes       160
   Panel bunching parameter    1.000
   TE/LE panel density ratio   0.150
   Refined-area/LE panel density ratio    0.200
   Top    side refined area x/c limits  1.000 1.000
   Bottom side refined area x/c limits  1.000 1.000

 XFOIL   c>  
 XFOIL   c>  
 XFOIL   c>  
.OPERi   c>  
.OPERi   c>  
.OPERi   c>  
.OPERi   c>  
 M  =    0.0000
 Re =  0.9000E+07

.OPERv   c>  
 Polar  1 newly created for accumulation
 Airfoil archived with polar: NACA 0012                                       

Enter  polar save filename  OR  <return> for no file   s>  
 Polar save file will NOT be written

Enter  polar dump filename  OR  <return> for no file   s>  
 Polar dump file will NOT be written

 Polar accumulation enabled

.OPERva   c>   Calculating unit vorticity distributions ...
 Calculating wake trajectory ...
 Calculating source influence matrix ...

 Solving BL system ...

 Initializing BL ...
    side            1  ...
 MRCHUE: Inverse mode at  30     Hk =   7.946
 MRCHUE: Inverse mode at  31     Hk =   2.500
 MRCHUE: Inverse mode at  90     Hk =   2.500
 MRCHUE: Inverse mode at  91     Hk =   2.500
 MRCHUE: Inverse mode at  92     Hk =   2.500
 MRCHUE: Inverse mode at  93     Hk =   2.500
 MRCHUE: Inverse mode at  94     Hk =   2.500
 MRCHUE: Inverse mode at  95     Hk =   2.500
 MRCHUE: Inverse mode at  96     Hk =   2.500
 MRCHUE: Inverse mode at  97     Hk =   2.500
 MRCHUE: Inverse mode at  98     Hk =   2.500
 MRCHUE: Inverse mode at  99     Hk =   2.500
 MRCHUE: Inverse mode at 100     Hk =   2.500
 MRCHUE: Inverse mode at 101     Hk =   2.500
 MRCHUE: Inverse mode at 102     Hk =   2.500
 MRCHUE: Convergence failed at 103  side 1    Res =  0.5547E+01
 MRCHUE: Convergence failed at 104  side 1    Res =  0.4366E+01
    side            2  ...
 MRCHUE: Inverse mode at  57     Hk =   4.895
 MRCHUE: Inverse mode at  58     Hk =   6.248

 MRCHDU: Convergence failed at 103  side 1    Res =  0.2379E+01
 MRCHDU: Convergence failed at 104  side 1    Res =  0.7094E+01
 Side 1  free  transition at x/c =  0.0042   31
 Side 2 forced transition at x/c =  1.0000   58

   1   rms: 0.8042E+00   max: -.9232E+01   C at   58  2   RLX: 0.054
       a = 19.837      CL =  2.3527
      Cm = -0.0463     CD =  0.00808   =>   CDf =  0.00407    CDp =  0.00400

 Side 1  free  transition at x/c =  0.0042   31
 Side 2 forced transition at x/c =  1.0000   58

   2   rms: 0.5565E+00   max: -.8764E+01   C at   58  2   RLX: 0.057
       a = 19.837      CL =  2.3389
      Cm = -0.0435     CD =  0.00872   =>   CDf =  0.00408    CDp =  0.00464

 Side 1  free  transition at x/c =  0.0042   31
 Side 2 forced transition at x/c =  1.0000   58

   3   rms: 0.4420E+00   max: -.5252E+01   C at   58  2   RLX: 0.095
       a = 19.837      CL =  2.3202
      Cm = -0.0400     CD =  0.00971   =>   CDf =  0.00409    CDp =  0.00562

 Side 1  free  transition at x/c =  0.0043   31
 Side 2 forced transition at x/c =  1.0000   58

   4   rms: 0.3735E+00   max: -.3483E+01   C at   58  2   RLX: 0.144
       a = 19.837      CL =  2.2927
      Cm = -0.0349     CD =  0.01122   =>   CDf =  0.00410    CDp =  0.00712

 Side 1  free  transition at x/c =  0.0044   31
 Side 2 forced transition at x/c =  1.0000   58

   5   rms: 0.3141E+00   max: -.2199E+01   C at   58  2   RLX: 0.227
       a = 19.837      CL =  2.2480
      Cm = -0.0267     CD =  0.01355   =>   CDf =  0.00411    CDp =  0.00944

 Side 1  free  transition at x/c =  0.0046   31
 Side 2 forced transition at x/c =  1.0000   58

   6   rms: 0.2620E+00   max: -.1170E+01   C at   58  2   RLX: 0.427
       a = 19.837      CL =  2.1592
      Cm = -0.0110     CD =  0.01767   =>   CDf =  0.00447    CDp =  0.01320

 Side 1  free  transition at x/c =  0.0049   30
 Side 2 forced transition at x/c =  1.0000   59

   7   rms: 0.2939E+00   max: -.1955E+01   C at   59  2   RLX: 0.256
       a = 19.837      CL =  2.0928
      Cm = -0.0010     CD =  0.02040   =>   CDf =  0.00406    CDp =  0.01633

 Side 1  free  transition at x/c =  0.0050   30
 Side 2 forced transition at x/c =  1.0000   59

   8   rms: 0.2551E+00   max: 0.9347E+00   D at   62  2
       a = 19.837      CL =  1.8515
      Cm =  0.0334     CD =  0.02975   =>   CDf =  0.00435    CDp =  0.02539

 Side 1  free  transition at x/c =  0.0064   30
 Side 2 forced transition at x/c =  1.0000   60

   9   rms: 0.4932E-01   max: 0.4275E+00   D at   67  2
       a = 19.837      CL =  1.8626
      Cm =  0.0329     CD =  0.03065   =>   CDf =  0.00374    CDp =  0.02691

 Side 1  free  transition at x/c =  0.0062   30
 Side 2 forced transition at x/c =  1.0000   60

  10   rms: 0.1322E-01   max: -.1580E+00   D at   30  1
       a = 19.837      CL =  1.8630
      Cm =  0.0322     CD =  0.03089   =>   CDf =  0.00375    CDp =  0.02715

 Side 1  free  transition at x/c =  0.0059   30
 Side 2 forced transition at x/c =  1.0000   60

  11   rms: 0.1851E-02   max: -.1484E-01   D at   30  1
       a = 19.837      CL =  1.8620
      Cm =  0.0322     CD =  0.03098   =>   CDf =  0.00375    CDp =  0.02722

 Side 1  free  transition at x/c =  0.0059   30
 Side 2 forced transition at x/c =  1.0000   60

  12   rms: 0.8546E-04   max: 0.1191E-02   D at   70  2
       a = 19.837      CL =  1.8620
      Cm =  0.0323     CD =  0.03097   =>   CDf =  0.00375    CDp =  0.02722
      9.000    6.9120   0.030970   0.018402   0.000607  -0.017795    0.0059     #

 Point added to stored polar  1
 Save file unspecified or not available
 Dump file unspecified or not available

.OPERva   c>  
.OPERva   c>  
.OPERva   c>  
        airfoil                    Re           Mach       NcritT  NcritB  XtripT  XtripB       file
       ------------------------  ------------  ----------  ------  ------  ------  ------    -------------------
 >  1  NACA 0012                 9.000e6       0.000         9.00    9.00   1.000   1.000    

Enter polar output filename   s>  
.OPERva   c>  
 ==============================================================
 Polar  1
  
       XFOIL         Version 6.99
  
 Calculated polar for: NACA 0012                                       
  
 1 1 Reynolds number fixed          Mach number fixed         
  
 xtrf =   1.000 (top)        1.000 (bottom)  
 Mach =   0.000     Re =     9.000 e 6     Ncrit =   9.000  9.000
  
   alpha    CL        CD       CDp       CM     Top_Xtr  Bot_Xtr  Top_Itr  Bot_Itr
  ------ -------- --------- --------- -------- -------- -------- -------- --------
  19.837   1.8620   0.03097   0.01536   0.0323   0.0059   1.0000  73.4972 160.0000

.OPERva   c>  
 XFOIL   c>  