
 ===================================================
  XFOIL Version 6.99
  Copyright (C) 2000   Mark Drela, Harold Youngren

  This software comes with ABSOLUTELY NO WARRANTY,
    subject to the GNU General Public License.

  Caveat computor
 ===================================================

 File  xfoil.def  not found

   QUIT    Exit program

  .OPER    Direct operating point(s)
  .MDES    Complex mapping design routine
  .QDES    Surface speed design routine
  .GDES    Geometry design routine

   SAVE f  Write airfoil to labeled coordinate file
   PSAV f  Write airfoil to plain coordinate file
   ISAV f  Write airfoil to ISES coordinate file
   MSAV f  Write airfoil to MSES coordinate file
   REVE    Reverse written-airfoil node ordering
   DELI i  Change written-airfoil file delimiters

   LOAD f  Read buffer airfoil from coordinate file
   NACA i  Set NACA 4,5-digit airfoil and buffer airfoil
   INTE    Set buffer airfoil by interpolating two airfoils
   NORM    Buffer airfoil normalization toggle
   HALF    Halve the number of points in buffer airfoil
   XYCM rr Change CM reference location, currently  0.25000 0.00000

   BEND    Display structural properties of current airfoil

   PCOP    Set current-airfoil panel nodes directly from buffer airfoil points
   PANE    Set current-airfoil panel nodes ( 160 ) based on curvature
  .PPAR    Show/change paneling

  .PLOP    Plotting options

   WDEF f  Write  current-settings file
   RDEF f  Reread current-settings file
   NAME s  Specify new airfoil name
   NINC    Increment name version number

   Z       Zoom    | (available in all menus)
   U       Unzoom  | 

 XFOIL   c>   Max thickness =     0.120032  at x =   0.297
 Max camber    =    -0.000000  at x =   0.015

 Buffer airfoil set using 245 points

 Blunt trailing edge.  Gap =  0.00252

 Paneling parameters used...
   Number of panel nodes       160
   Panel bunching parameter    1.000
   TE/LE panel density ratio   0.150
   Refined-area/LE panel density ratio    0.200
   Top    side refined area x/c limits  1.000 1.000
   Bottom side refined area x/c limits  1.000 1.000

 XFOIL   c>  
 XFOIL   c>  
 XFOIL   c>  
 Blunt trailing edge.  Gap =  0.00252

 Paneling parameters used...
   Number of panel nodes       160
   Panel bunching parameter    1.000
   TE/LE panel density ratio   0.150
   Refined-area/LE panel density ratio    0.200
   Top    side refined area x/c limits  1.000 1.000
   Bottom side refined area x/c limits  1.000 1.000

 XFOIL   c>  
 XFOIL   c>  
 XFOIL   c>  
.OPERi   c>  
.OPERi   c>  
.OPERi   c>  
.OPERi   c>  
 M  =    0.0000
 Re =  0.9000E+07

.OPERv   c>  
 Polar  1 newly created for accumulation
 Airfoil archived with polar: NACA 0012                                       

Enter  polar save filename  OR  <return> for no file   s>  
 Polar save file will NOT be written

Enter  polar dump filename  OR  <return> for no file   s>  
 Polar dump file will NOT be written

 Polar accumulation enabled

.OPERva   c>   Calculating unit vorticity distributions ...
 Calculating wake trajectory ...
 Calculating source influence matrix ...

 Solving BL system ...

 Initializing BL ...
    side            1  ...
 MRCHUE: Inverse mode at  29     Hk =   7.973
 MRCHUE: Inverse mode at  30     Hk =   2.500
 MRCHUE: Inverse mode at  96     Hk =   2.500
 MRCHUE: Inverse mode at  97     Hk =   2.500
 MRCHUE: Inverse mode at  98     Hk =   2.500
 MRCHUE: Inverse mode at  99     Hk =   2.500
 MRCHUE: Inverse mode at 100     Hk =   2.500
 MRCHUE: Inverse mode at 101     Hk =   2.500
 MRCHUE: Convergence failed at 102  side 1    Res =  0.9997E+01
    side            2  ...
 MRCHUE: Inverse mode at  58     Hk =   5.012
 MRCHUE: Inverse mode at  59     Hk =   6.777
 MRCHUE: Inverse mode at  60     Hk =   8.073

 MRCHDU: Convergence failed at 102  side 1    Res =  0.7417E+01
 Side 1  free  transition at x/c =  0.0054   30
 Side 2 forced transition at x/c =  1.0000   60

   1   rms: 0.5463E+00   max: -.5499E+01   D at   60  2   RLX: 0.091
       a = 16.785      CL =  1.9741
      Cm = -0.0246     CD =  0.00782   =>   CDf =  0.00419    CDp =  0.00362

 Side 1  free  transition at x/c =  0.0055   30
 Side 2 forced transition at x/c =  1.0000   60

   2   rms: 0.5050E+00   max: -.8705E+01   C at   60  2   RLX: 0.057
       a = 16.785      CL =  1.9614
      Cm = -0.0221     CD =  0.00823   =>   CDf =  0.00422    CDp =  0.00401

 Side 1  free  transition at x/c =  0.0055   30
 Side 2 forced transition at x/c =  1.0000   60

   3   rms: 0.3191E+00   max: -.3687E+01   C at   60  2   RLX: 0.136
       a = 16.785      CL =  1.9436
      Cm = -0.0189     CD =  0.00914   =>   CDf =  0.00453    CDp =  0.00461

 Side 1  free  transition at x/c =  0.0056   29
 Side 2 forced transition at x/c =  1.0000   61

   4   rms: 0.3888E+00   max: -.5112E+01   T at    2  2   RLX: 0.098
       a = 16.785      CL =  1.9323
      Cm = -0.0170     CD =  0.00982   =>   CDf =  0.00426    CDp =  0.00556

 Side 1  free  transition at x/c =  0.0057   29
 Side 2 forced transition at x/c =  1.0000   61

   5   rms: 0.2220E+00   max: -.1502E+01   C at   61  2   RLX: 0.333
       a = 16.785      CL =  1.8950
      Cm = -0.0106     CD =  0.01187   =>   CDf =  0.00427    CDp =  0.00761

 Side 1  free  transition at x/c =  0.0060   29
 Side 2 forced transition at x/c =  1.0000   61

   6   rms: 0.1476E+00   max: 0.6239E+00   D at   68  2
       a = 16.785      CL =  1.7919
      Cm =  0.0076     CD =  0.01688   =>   CDf =  0.00428    CDp =  0.01260

 Side 1  free  transition at x/c =  0.0067   29
 Side 2 forced transition at x/c =  1.0000   61

   7   rms: 0.3318E-01   max: 0.2718E+00   C at   61  2
       a = 16.785      CL =  1.7547
      Cm =  0.0147     CD =  0.01805   =>   CDf =  0.00423    CDp =  0.01382

 Side 1  free  transition at x/c =  0.0067   29
 Side 2 forced transition at x/c =  1.0000   61

   8   rms: 0.6226E-02   max: 0.4018E-01   D at   63  2
       a = 16.785      CL =  1.7497
      Cm =  0.0156     CD =  0.01803   =>   CDf =  0.00419    CDp =  0.01384

 Side 1  free  transition at x/c =  0.0067   29
 Side 2 forced transition at x/c =  1.0000   61

   9   rms: 0.1301E-02   max: -.2333E-01   C at   61  2
       a = 16.785      CL =  1.7492
      Cm =  0.0157     CD =  0.01803   =>   CDf =  0.00418    CDp =  0.01385

 Side 1  free  transition at x/c =  0.0067   29
 Side 2 forced transition at x/c =  1.0000   61

  10   rms: 0.9713E-05   max: 0.2163E-03   D at  100  1
       a = 16.785      CL =  1.7492
      Cm =  0.0157     CD =  0.01803   =>   CDf =  0.00418    CDp =  0.01385
      9.000    4.3824   0.018030   0.000476   0.000547   0.000071    0.0067     #

 Point added to stored polar  1
 Save file unspecified or not available
 Dump file unspecified or not available

.OPERva   c>  
.OPERva   c>  
.OPERva   c>  
        airfoil                    Re           Mach       NcritT  NcritB  XtripT  XtripB       file
       ------------------------  ------------  ----------  ------  ------  ------  ------    -------------------
 >  1  NACA 0012                 9.000e6       0.000         9.00    9.00   1.000   1.000    

Enter polar output filename   s>  
.OPERva   c>  
 ==============================================================
 Polar  1
  
       XFOIL         Version 6.99
  
 Calculated polar for: NACA 0012                                       
  
 1 1 Reynolds number fixed          Mach number fixed         
  
 xtrf =   1.000 (top)        1.000 (bottom)  
 Mach =   0.000     Re =     9.000 e 6     Ncrit =   9.000  9.000
  
   alpha    CL        CD       CDp       CM     Top_Xtr  Bot_Xtr  Top_Itr  Bot_Itr
  ------ -------- --------- --------- -------- -------- -------- -------- --------
  16.785   1.7492   0.01803   0.00830   0.0157   0.0067   1.0000  73.0353 160.0000

.OPERva   c>  
 XFOIL   c>  