
 ===================================================
  XFOIL Version 6.99
  Copyright (C) 2000   Mark Drela, Harold Youngren

  This software comes with ABSOLUTELY NO WARRANTY,
    subject to the GNU General Public License.

  Caveat computor
 ===================================================

 File  xfoil.def  not found

   QUIT    Exit program

  .OPER    Direct operating point(s)
  .MDES    Complex mapping design routine
  .QDES    Surface speed design routine
  .GDES    Geometry design routine

   SAVE f  Write airfoil to labeled coordinate file
   PSAV f  Write airfoil to plain coordinate file
   ISAV f  Write airfoil to ISES coordinate file
   MSAV f  Write airfoil to MSES coordinate file
   REVE    Reverse written-airfoil node ordering
   DELI i  Change written-airfoil file delimiters

   LOAD f  Read buffer airfoil from coordinate file
   NACA i  Set NACA 4,5-digit airfoil and buffer airfoil
   INTE    Set buffer airfoil by interpolating two airfoils
   NORM    Buffer airfoil normalization toggle
   HALF    Halve the number of points in buffer airfoil
   XYCM rr Change CM reference location, currently  0.25000 0.00000

   BEND    Display structural properties of current airfoil

   PCOP    Set current-airfoil panel nodes directly from buffer airfoil points
   PANE    Set current-airfoil panel nodes ( 160 ) based on curvature
  .PPAR    Show/change paneling

  .PLOP    Plotting options

   WDEF f  Write  current-settings file
   RDEF f  Reread current-settings file
   NAME s  Specify new airfoil name
   NINC    Increment name version number

   Z       Zoom    | (available in all menus)
   U       Unzoom  | 

 XFOIL   c>   Max thickness =     0.120032  at x =   0.297
 Max camber    =    -0.000000  at x =   0.018

 Buffer airfoil set using 245 points

 Blunt trailing edge.  Gap =  0.00252

 Paneling parameters used...
   Number of panel nodes       160
   Panel bunching parameter    1.000
   TE/LE panel density ratio   0.150
   Refined-area/LE panel density ratio    0.200
   Top    side refined area x/c limits  1.000 1.000
   Bottom side refined area x/c limits  1.000 1.000

 XFOIL   c>  
 XFOIL   c>  
 XFOIL   c>  
 Blunt trailing edge.  Gap =  0.00252

 Paneling parameters used...
   Number of panel nodes       160
   Panel bunching parameter    1.000
   TE/LE panel density ratio   0.150
   Refined-area/LE panel density ratio    0.200
   Top    side refined area x/c limits  1.000 1.000
   Bottom side refined area x/c limits  1.000 1.000

 XFOIL   c>  
 XFOIL   c>  
 XFOIL   c>  
.OPERi   c>  
.OPERi   c>  
.OPERi   c>  
.OPERi   c>  
 M  =    0.0000
 Re =  0.9000E+07

.OPERv   c>  
 Polar  1 newly created for accumulation
 Airfoil archived with polar: NACA 0012                                       

Enter  polar save filename  OR  <return> for no file   s>  
 Polar save file will NOT be written

Enter  polar dump filename  OR  <return> for no file   s>  
 Polar dump file will NOT be written

 Polar accumulation enabled

.OPERva   c>   Calculating unit vorticity distributions ...
 Calculating wake trajectory ...
 Calculating source influence matrix ...

 Solving BL system ...

 Initializing BL ...
    side            1  ...
 MRCHUE: Inverse mode at  27     Hk =   7.511
 MRCHUE: Inverse mode at  28     Hk =   2.500
 MRCHUE: Inverse mode at  97     Hk =   2.500
 MRCHUE: Inverse mode at  98     Hk =   2.500
 MRCHUE: Inverse mode at  99     Hk =   2.500
 MRCHUE: Convergence failed at 100  side 1    Res =  0.4853E+01
    side            2  ...
 MRCHUE: Inverse mode at  60     Hk =   5.344
 MRCHUE: Inverse mode at  61     Hk =   7.014
 MRCHUE: Inverse mode at  62     Hk =   8.243

 MRCHDU: Convergence failed at 100  side 1    Res =  0.3949E+01
 Side 1  free  transition at x/c =  0.0061   28
 Side 2 forced transition at x/c =  1.0000   62

   1   rms: 0.3968E+00   max: -.3413E+01   D at   62  2   RLX: 0.147
       a = 14.211      CL =  1.6687
      Cm = -0.0149     CD =  0.00749   =>   CDf =  0.00469    CDp =  0.00280

 Side 1  free  transition at x/c =  0.0062   27
 Side 2 forced transition at x/c =  1.0000   63

   2   rms: 0.2993E+00   max: -.4258E+01   C at   63  2   RLX: 0.117
       a = 14.211      CL =  1.6524
      Cm = -0.0119     CD =  0.00807   =>   CDf =  0.00442    CDp =  0.00365

 Side 1  free  transition at x/c =  0.0064   27
 Side 2 forced transition at x/c =  1.0000   63

   3   rms: 0.1983E+00   max: -.1527E+01   C at   63  2   RLX: 0.327
       a = 14.211      CL =  1.6252
      Cm = -0.0079     CD =  0.00957   =>   CDf =  0.00442    CDp =  0.00515

 Side 1  free  transition at x/c =  0.0067   27
 Side 2 forced transition at x/c =  1.0000   63

   4   rms: 0.1275E+00   max: 0.5628E+00   D at   69  2
       a = 14.211      CL =  1.5566
      Cm =  0.0026     CD =  0.01326   =>   CDf =  0.00441    CDp =  0.00884

 MRCHDU: Convergence failed at  28  side 1    Res =  0.7297E+00
 MRCHDU: Convergence failed at  29  side 1    Res =  0.1402E+01
 MRCHDU: Convergence failed at  30  side 1    Res =  0.1316E+01
 MRCHDU: Convergence failed at  31  side 1    Res =  0.3254E+01
 MRCHDU: Convergence failed at  32  side 1    Res =  0.7075E+01
 Side 1  free  transition at x/c =  0.0181   32
 Side 2 forced transition at x/c =  1.0000   63

   5   rms: 0.2351E+00   max: -.2621E+01   D at   33  1   RLX: 0.191
       a = 14.211      CL =  1.5893
      Cm =  0.0086     CD =  0.01243   =>   CDf =  0.00424    CDp =  0.00819

 MRCHDU: Convergence failed at  33  side 1    Res =  0.7154E+02
 Side 1  free  transition at x/c =  0.0223   33
 Side 2 forced transition at x/c =  1.0000   63

   6   rms: 0.3247E+00   max: -.3783E+01   D at   34  1   RLX: 0.132
       a = 14.211      CL =  1.5997
      Cm =  0.0096     CD =  0.01232   =>   CDf =  0.00415    CDp =  0.00818

 Side 1  free  transition at x/c =  0.0160   31
 Side 2 forced transition at x/c =  1.0000   63

   7   rms: 0.4643E+00   max: 0.9984E+01   C at   31  1   RLX: 0.150
       a = 14.211      CL =  1.5861
      Cm =  0.0095     CD =  0.01367   =>   CDf =  0.00428    CDp =  0.00939

 Side 1  free  transition at x/c =  0.0131   30
 Side 2 forced transition at x/c =  1.0000   63

   8   rms: 0.2201E+00   max: 0.4131E+01   C at   30  1   RLX: 0.284
       a = 14.211      CL =  1.5702
      Cm =  0.0087     CD =  0.01383   =>   CDf =  0.00429    CDp =  0.00954

 Side 1  free  transition at x/c =  0.0108   29
 Side 2 forced transition at x/c =  1.0000   63

   9   rms: 0.8432E-01   max: -.2708E+00   U at   33  1   RLX: 0.952
       a = 14.211      CL =  1.5456
      Cm =  0.0055     CD =  0.01348   =>   CDf =  0.00431    CDp =  0.00917

 Side 1  free  transition at x/c =  0.0087   28
 Side 2 forced transition at x/c =  1.0000   63

  10   rms: 0.1143E-01   max: -.1810E+00   C at   28  1
       a = 14.211      CL =  1.5435
      Cm =  0.0055     CD =  0.01355   =>   CDf =  0.00431    CDp =  0.00923

 Side 1  free  transition at x/c =  0.0086   28
 Side 2 forced transition at x/c =  1.0000   63

  11   rms: 0.9595E-03   max: -.4623E-02   U at   28  1
       a = 14.211      CL =  1.5433
      Cm =  0.0055     CD =  0.01357   =>   CDf =  0.00432    CDp =  0.00925

 Side 1  free  transition at x/c =  0.0085   28
 Side 2 forced transition at x/c =  1.0000   63

  12   rms: 0.5907E-05   max: -.1099E-03   D at   28  1
       a = 14.211      CL =  1.5433
      Cm =  0.0055     CD =  0.01357   =>   CDf =  0.00432    CDp =  0.00925
      9.000    4.2537   0.013569   0.000406   0.000433   0.000027    0.0085     #

 Point added to stored polar  1
 Save file unspecified or not available
 Dump file unspecified or not available

.OPERva   c>  
.OPERva   c>  
.OPERva   c>  
        airfoil                    Re           Mach       NcritT  NcritB  XtripT  XtripB       file
       ------------------------  ------------  ----------  ------  ------  ------  ------    -------------------
 >  1  NACA 0012                 9.000e6       0.000         9.00    9.00   1.000   1.000    

Enter polar output filename   s>  
.OPERva   c>  
 ==============================================================
 Polar  1
  
       XFOIL         Version 6.99
  
 Calculated polar for: NACA 0012                                       
  
 1 1 Reynolds number fixed          Mach number fixed         
  
 xtrf =   1.000 (top)        1.000 (bottom)  
 Mach =   0.000     Re =     9.000 e 6     Ncrit =   9.000  9.000
  
   alpha    CL        CD       CDp       CM     Top_Xtr  Bot_Xtr  Top_Itr  Bot_Itr
  ------ -------- --------- --------- -------- -------- -------- -------- --------
  14.211   1.5433   0.01357   0.00584   0.0055   0.0085   1.0000  72.1280 160.0000

.OPERva   c>  
 XFOIL   c>  