
 ===================================================
  XFOIL Version 6.99
  Copyright (C) 2000   Mark Drela, Harold Youngren

  This software comes with ABSOLUTELY NO WARRANTY,
    subject to the GNU General Public License.

  Caveat computor
 ===================================================

 File  xfoil.def  not found

   QUIT    Exit program

  .OPER    Direct operating point(s)
  .MDES    Complex mapping design routine
  .QDES    Surface speed design routine
  .GDES    Geometry design routine

   SAVE f  Write airfoil to labeled coordinate file
   PSAV f  Write airfoil to plain coordinate file
   ISAV f  Write airfoil to ISES coordinate file
   MSAV f  Write airfoil to MSES coordinate file
   REVE    Reverse written-airfoil node ordering
   DELI i  Change written-airfoil file delimiters

   LOAD f  Read buffer airfoil from coordinate file
   NACA i  Set NACA 4,5-digit airfoil and buffer airfoil
   INTE    Set buffer airfoil by interpolating two airfoils
   NORM    Buffer airfoil normalization toggle
   HALF    Halve the number of points in buffer airfoil
   XYCM rr Change CM reference location, currently  0.25000 0.00000

   BEND    Display structural properties of current airfoil

   PCOP    Set current-airfoil panel nodes directly from buffer airfoil points
   PANE    Set current-airfoil panel nodes ( 160 ) based on curvature
  .PPAR    Show/change paneling

  .PLOP    Plotting options

   WDEF f  Write  current-settings file
   RDEF f  Reread current-settings file
   NAME s  Specify new airfoil name
   NINC    Increment name version number

   Z       Zoom    | (available in all menus)
   U       Unzoom  | 

 XFOIL   c>   Max thickness =     0.120032  at x =   0.297
 Max camber    =    -0.000000  at x =   0.018

 Buffer airfoil set using 245 points

 Blunt trailing edge.  Gap =  0.00252

 Paneling parameters used...
   Number of panel nodes       160
   Panel bunching parameter    1.000
   TE/LE panel density ratio   0.150
   Refined-area/LE panel density ratio    0.200
   Top    side refined area x/c limits  1.000 1.000
   Bottom side refined area x/c limits  1.000 1.000

 XFOIL   c>  
 XFOIL   c>  
 XFOIL   c>  
 Blunt trailing edge.  Gap =  0.00252

 Paneling parameters used...
   Number of panel nodes       160
   Panel bunching parameter    1.000
   TE/LE panel density ratio   0.150
   Refined-area/LE panel density ratio    0.200
   Top    side refined area x/c limits  1.000 1.000
   Bottom side refined area x/c limits  1.000 1.000

 XFOIL   c>  
 XFOIL   c>  
 XFOIL   c>  
.OPERi   c>  
.OPERi   c>  
.OPERi   c>  
.OPERi   c>  
 M  =    0.0000
 Re =  0.9000E+07

.OPERv   c>  
 Polar  1 newly created for accumulation
 Airfoil archived with polar: NACA 0012                                       

Enter  polar save filename  OR  <return> for no file   s>  
 Polar save file will NOT be written

Enter  polar dump filename  OR  <return> for no file   s>  
 Polar dump file will NOT be written

 Polar accumulation enabled

.OPERva   c>   Calculating unit vorticity distributions ...
 Calculating wake trajectory ...
 Calculating source influence matrix ...

 Solving BL system ...

 Initializing BL ...
    side            1  ...
 MRCHUE: Inverse mode at  28     Hk =   7.773
 MRCHUE: Inverse mode at  29     Hk =   2.500
 MRCHUE: Inverse mode at  94     Hk =   2.500
 MRCHUE: Inverse mode at  95     Hk =   2.500
 MRCHUE: Inverse mode at  96     Hk =   2.500
 MRCHUE: Inverse mode at  97     Hk =   2.500
 MRCHUE: Inverse mode at  98     Hk =   2.500
 MRCHUE: Inverse mode at  99     Hk =   2.500
 MRCHUE: Inverse mode at 100     Hk =   2.500
 MRCHUE: Inverse mode at 101     Hk =   2.500
 MRCHUE: Convergence failed at 102  side 1    Res =  0.1352E+02
    side            2  ...
 MRCHUE: Inverse mode at  58     Hk =   4.994
 MRCHUE: Inverse mode at  59     Hk =   6.791
 MRCHUE: Inverse mode at  60     Hk =   8.111

 MRCHDU: Convergence failed at 102  side 1    Res =  0.1037E+02
 Side 1  free  transition at x/c =  0.0044   29
 Side 2 forced transition at x/c =  1.0000   60

   1   rms: 0.6644E+00   max: -.7131E+01   D at   60  2   RLX: 0.070
       a = 17.623      CL =  2.0782
      Cm = -0.0282     CD =  0.00783   =>   CDf =  0.00428    CDp =  0.00354

 Side 1  free  transition at x/c =  0.0044   29
 Side 2 forced transition at x/c =  1.0000   60

   2   rms: 0.6218E+00   max: -.1120E+02   C at   60  2   RLX: 0.045
       a = 17.623      CL =  2.0662
      Cm = -0.0259     CD =  0.00819   =>   CDf =  0.00428    CDp =  0.00390

 Side 1  free  transition at x/c =  0.0045   29
 Side 2 forced transition at x/c =  1.0000   60

   3   rms: 0.3745E+00   max: -.4794E+01   C at   60  2   RLX: 0.104
       a = 17.623      CL =  2.0501
      Cm = -0.0231     CD =  0.00900   =>   CDf =  0.00428    CDp =  0.00472

 Side 1  free  transition at x/c =  0.0045   29
 Side 2 forced transition at x/c =  1.0000   60

   4   rms: 0.2987E+00   max: -.2742E+01   C at   60  2   RLX: 0.182
       a = 17.623      CL =  2.0254
      Cm = -0.0190     CD =  0.01041   =>   CDf =  0.00429    CDp =  0.00612

 Side 1  free  transition at x/c =  0.0047   29
 Side 2 forced transition at x/c =  1.0000   60

   5   rms: 0.2345E+00   max: -.1476E+01   C at   60  2   RLX: 0.339
       a = 17.623      CL =  1.9806
      Cm = -0.0115     CD =  0.01287   =>   CDf =  0.00430    CDp =  0.00857

 Side 1  free  transition at x/c =  0.0050   29
 Side 2 forced transition at x/c =  1.0000   60

   6   rms: 0.1704E+00   max: 0.6994E+00   D at   68  2
       a = 17.623      CL =  1.8511
      Cm =  0.0106     CD =  0.01901   =>   CDf =  0.00461    CDp =  0.01439

 MRCHDU: Convergence failed at  29  side 1    Res =  0.8497E+00
 MRCHDU: Convergence failed at  30  side 1    Res =  0.1415E+01
 MRCHDU: Convergence failed at  31  side 1    Res =  0.1749E+01
 MRCHDU: Convergence failed at  32  side 1    Res =  0.5552E+01
 MRCHDU: Convergence failed at  33  side 1    Res =  0.6769E+03
 MRCHDU: Convergence failed at  34  side 1    Res =  0.1385E+02
 MRCHDU: Convergence failed at  35  side 1    Res =  0.2936E+01
 Side 1  free  transition at x/c =  0.0213   35
 Side 2 forced transition at x/c =  1.0000   61

   7   rms: 0.1240E+01   max: 0.1418E+02   D at    2  2   RLX: 0.056
       a = 17.623      CL =  1.9700
      Cm =  0.0290     CD =  0.01712   =>   CDf =  0.00376    CDp =  0.01337

 MRCHDU: Convergence failed at  37  side 1    Res =  0.2111E+02
 MRCHDU: Convergence failed at  38  side 1    Res =  0.5140E+01
 MRCHDU: Convergence failed at  39  side 1    Res =  0.6875E+01
 MRCHDU: Convergence failed at  40  side 1    Res =  0.1187E+02
 MRCHDU: Convergence failed at  41  side 1    Res =  0.2514E+00
 MRCHDU: Convergence failed at  42  side 1    Res =  0.2529E+00
 MRCHDU: Convergence failed at  43  side 1    Res =  0.4200E+00
 MRCHDU: Convergence failed at  44  side 1    Res =  0.4426E+00
 MRCHDU: Convergence failed at  45  side 1    Res =  0.8479E+01
 MRCHDU: Convergence failed at  46  side 1    Res =  0.1427E+01
 MRCHDU: Convergence failed at  48  side 1    Res =  0.1696E+01
 MRCHDU: Convergence failed at  49  side 1    Res =  0.1982E+01
 MRCHDU: Convergence failed at  50  side 1    Res =  0.2235E+01
 MRCHDU: Convergence failed at  51  side 1    Res =  0.2577E+01
 MRCHDU: Convergence failed at  52  side 1    Res =  0.3005E+01
 MRCHDU: Convergence failed at  53  side 1    Res =  0.3984E+01
 MRCHDU: Convergence failed at  54  side 1    Res =  0.4573E+01
 MRCHDU: Convergence failed at  55  side 1    Res =  0.5318E+01
 MRCHDU: Convergence failed at  56  side 1    Res =  0.6189E+01
 MRCHDU: Convergence failed at  57  side 1    Res =  0.1255E+02
 MRCHDU: Convergence failed at  58  side 1    Res =  0.1380E+02
 MRCHDU: Convergence failed at  59  side 1    Res =  0.1165E+02
 MRCHDU: Convergence failed at  60  side 1    Res =  0.1319E+02
 MRCHDU: Convergence failed at  61  side 1    Res =  0.1471E+02
 MRCHDU: Convergence failed at  62  side 1    Res =  0.1482E+02
 MRCHDU: Convergence failed at  63  side 1    Res =  0.8719E+01
 MRCHDU: Convergence failed at  64  side 1    Res =  0.9343E+01
 MRCHDU: Convergence failed at  65  side 1    Res =  0.8086E+01
 MRCHDU: Convergence failed at  66  side 1    Res =  0.8692E+01
 MRCHDU: Convergence failed at  67  side 1    Res =  0.9355E+01
 MRCHDU: Convergence failed at  68  side 1    Res =  0.1038E+02
 MRCHDU: Convergence failed at  69  side 1    Res =  0.1139E+02
 MRCHDU: Convergence failed at  70  side 1    Res =  0.1022E+02
 MRCHDU: Convergence failed at  71  side 1    Res =  0.1103E+02
 MRCHDU: Convergence failed at  72  side 1    Res =  0.1192E+02
 MRCHDU: Convergence failed at  73  side 1    Res =  0.1998E+02
 MRCHDU: Convergence failed at  74  side 1    Res =  0.2160E+02
 MRCHDU: Convergence failed at  75  side 1    Res =  0.2889E+02
 MRCHDU: Convergence failed at  76  side 1    Res =  0.3270E+02
 MRCHDU: Convergence failed at  77  side 1    Res =  0.3749E+02
 MRCHDU: Convergence failed at  78  side 1    Res =  0.4373E+02
 MRCHDU: Convergence failed at  79  side 1    Res =  0.5211E+02
 MRCHDU: Convergence failed at  80  side 1    Res =  0.6408E+02
 MRCHDU: Convergence failed at  81  side 1    Res =  0.8285E+02
 MRCHDU: Convergence failed at  82  side 1    Res =  0.1160E+03
 MRCHDU: Convergence failed at  83  side 1    Res =  0.1905E+03
 MRCHDU: Convergence failed at  84  side 1    Res =  0.3714E+02
 MRCHDU: Convergence failed at  85  side 1    Res =  0.4826E+02
 MRCHDU: Convergence failed at  86  side 1    Res =  0.6719E+02
 MRCHDU: Convergence failed at  87  side 1    Res =  0.1082E+03
 MRCHDU: Convergence failed at  88  side 1    Res =  0.5364E+03
 MRCHDU: Convergence failed at  89  side 1    Res =  0.1516E+02
 MRCHDU: Convergence failed at  90  side 1    Res =  0.1694E+04
 MRCHDU: Convergence failed at  91  side 1    Res =  0.3447E+03
 MRCHDU: Convergence failed at  92  side 1    Res =  0.1412E+02
 MRCHDU: Convergence failed at  93  side 1    Res =  0.3959E+03
 MRCHDU: Convergence failed at  94  side 1    Res =  0.4212E+03
 MRCHDU: Convergence failed at  95  side 1    Res =  0.1437E+03
 MRCHDU: Convergence failed at  96  side 1    Res =  0.8788E+02
 MRCHDU: Convergence failed at  97  side 1    Res =  0.6372E+02
 MRCHDU: Convergence failed at  98  side 1    Res =  0.4957E+02
 MRCHDU: Convergence failed at  99  side 1    Res =  0.4308E+02
 MRCHDU: Convergence failed at 100  side 1    Res =  0.3417E+02
 MRCHDU: Convergence failed at 101  side 1    Res =  0.2570E+02
 MRCHDU: Convergence failed at 102  side 1    Res =  0.2311E+02
 Side 1  free  transition at x/c =  0.0415   40
 Side 2 forced transition at x/c =  1.0000   60

   8   rms: 0.6960E+01   max: 0.1981E+02   D at   62  2   RLX: 0.031
       a = 17.623      CL =  7.0259
      Cm = -1.3904     CD =  0.00169   =>   CDf =  0.00127    CDp =  0.00042

 Side 1  free  transition at x/c =  0.0381   39
 Side 2 forced transition at x/c =  1.0000   60

   9   rms: 0.3890E+01   max: 0.8950E+02   C at   39  1   RLX: 0.017
       a = 17.623      CL =  6.8865
      Cm = -1.3447     CD =  0.00376   =>   CDf =  0.01669    CDp = -0.01293

 Side 1  free  transition at x/c =  0.0335   39
 Side 2 forced transition at x/c =  1.0000   60

  10   rms: 0.1786E+01   max: -.1767E+01   U at  102  1   RLX: 0.104
       a = 17.623      CL =  6.2403
      Cm = -1.1552     CD =  0.00416   =>   CDf =  0.01655    CDp = -0.01239

 Side 1  free  transition at x/c =  0.0191   35
 Side 2 forced transition at x/c =  1.0000   60

  11   rms: 0.1786E+01   max: 0.2208E+02   C at   35  1   RLX: 0.061
       a = 17.623      CL =  5.9130
      Cm = -1.0598     CD =  0.00445   =>   CDf =  0.01512    CDp = -0.01067

 Side 1  free  transition at x/c =  0.0155   34
 Side 2 forced transition at x/c =  1.0000   60

  12   rms: 0.1550E+01   max: 0.1328E+02   C at   34  1   RLX: 0.067
       a = 17.623      CL =  5.5857
      Cm = -0.9657     CD =  0.00468   =>   CDf =  0.01435    CDp = -0.00967

 Side 1  free  transition at x/c =  0.0131   33
 Side 2 forced transition at x/c =  1.0000   60

  13   rms: 0.1382E+01   max: 0.1049E+02   C at   33  1   RLX: 0.137
       a = 17.623      CL =  4.9859
      Cm = -0.7949     CD =  0.00518   =>   CDf =  0.01358    CDp = -0.00840

 Side 1  free  transition at x/c =  0.0105   32
 Side 2 forced transition at x/c =  1.0000   60

  14   rms: 0.1331E+01   max: 0.1697E+01   T at   61  2   RLX: 0.170
       a = 17.623      CL =  4.3790
      Cm = -0.6262     CD =  0.00649   =>   CDf =  0.01208    CDp = -0.00559

 Side 1  free  transition at x/c =  0.0087   31
 Side 2 forced transition at x/c =  1.0000   60

  15   rms: 0.9465E+00   max: 0.1033E+01   C at   60  2   RLX: 0.187
       a = 17.623      CL =  3.8540
      Cm = -0.4853     CD =  0.00631   =>   CDf =  0.01030    CDp = -0.00399

 Side 1  free  transition at x/c =  0.0081   31
 Side 2 forced transition at x/c =  1.0000   60

  16   rms: 0.2177E+01   max: 0.8097E+01   D at   49  1   RLX: 0.137
       a = 17.623      CL =  3.5523
      Cm = -0.4064     CD =  0.00960   =>   CDf =  0.00929    CDp =  0.00031

 Side 1  free  transition at x/c =  0.0075   31
 Side 2 forced transition at x/c =  1.0000   60

  17   rms: 0.6516E+00   max: 0.7116E+00   D at   63  2   RLX: 0.319
       a = 17.623      CL =  2.9565
      Cm = -0.2645     CD =  0.00945   =>   CDf =  0.00818    CDp =  0.00127

 Side 1  free  transition at x/c =  0.0068   30
 Side 2 forced transition at x/c =  1.0000   60

  18   rms: 0.4668E+00   max: 0.6294E+00   D at   64  2   RLX: 0.391
       a = 17.623      CL =  2.5357
      Cm = -0.1522     CD =  0.01118   =>   CDf =  0.00677    CDp =  0.00442

 Side 1  free  transition at x/c =  0.0067   30
 Side 2 forced transition at x/c =  1.0000   60

  19   rms: 0.4177E+00   max: -.2399E+01   D at   50  1   RLX: 0.204
       a = 17.623      CL =  2.4001
      Cm = -0.1177     CD =  0.01131   =>   CDf =  0.00585    CDp =  0.00546

 Side 1  free  transition at x/c =  0.0066   30
 Side 2 forced transition at x/c =  1.0000   60

  20   rms: 0.2993E+00   max: 0.6692E+00   D at   66  2   RLX: 0.721
       a = 17.623      CL =  2.0302
      Cm = -0.0258     CD =  0.01454   =>   CDf =  0.00554    CDp =  0.00900

 Side 1  free  transition at x/c =  0.0065   30
 Side 2 forced transition at x/c =  1.0000   60

  21   rms: 0.1420E+00   max: -.6664E+00   C at   60  2   RLX: 0.750
       a = 17.623      CL =  1.8852
      Cm =  0.0045     CD =  0.01802   =>   CDf =  0.00456    CDp =  0.01346

 Side 1  free  transition at x/c =  0.0065   30
 Side 2 forced transition at x/c =  1.0000   60

  22   rms: 0.5927E-01   max: 0.2245E+00   D at   62  2
       a = 17.623      CL =  1.8111
      Cm =  0.0188     CD =  0.01978   =>   CDf =  0.00455    CDp =  0.01522

 Side 1  free  transition at x/c =  0.0066   29
 Side 2 forced transition at x/c =  1.0000   61

  23   rms: 0.2758E-01   max: -.1795E+00   C at   61  2
       a = 17.623      CL =  1.7899
      Cm =  0.0224     CD =  0.01998   =>   CDf =  0.00412    CDp =  0.01586

 Side 1  free  transition at x/c =  0.0066   29
 Side 2 forced transition at x/c =  1.0000   61

  24   rms: 0.5457E-02   max: 0.4891E-01   C at   61  2
       a = 17.623      CL =  1.7926
      Cm =  0.0218     CD =  0.01998   =>   CDf =  0.00409    CDp =  0.01588

 Side 1  free  transition at x/c =  0.0066   29
 Side 2 forced transition at x/c =  1.0000   61

  25   rms: 0.1138E-03   max: -.1309E-02   D at   70  2
       a = 17.623      CL =  1.7926
      Cm =  0.0218     CD =  0.01998   =>   CDf =  0.00410    CDp =  0.01588

 Side 1  free  transition at x/c =  0.0066   29
 Side 2 forced transition at x/c =  1.0000   61

  26   rms: 0.1245E-05   max: -.5128E-05   D at   91  1
       a = 17.623      CL =  1.7926
      Cm =  0.0218     CD =  0.01998   =>   CDf =  0.00410    CDp =  0.01588
      9.000    4.2929   0.019980   0.018690   0.000543  -0.018147    0.0066     #

 Point added to stored polar  1
 Save file unspecified or not available
 Dump file unspecified or not available

.OPERva   c>  
.OPERva   c>  
.OPERva   c>  
        airfoil                    Re           Mach       NcritT  NcritB  XtripT  XtripB       file
       ------------------------  ------------  ----------  ------  ------  ------  ------    -------------------
 >  1  NACA 0012                 9.000e6       0.000         9.00    9.00   1.000   1.000    

Enter polar output filename   s>  
.OPERva   c>  
 ==============================================================
 Polar  1
  
       XFOIL         Version 6.99
  
 Calculated polar for: NACA 0012                                       
  
 1 1 Reynolds number fixed          Mach number fixed         
  
 xtrf =   1.000 (top)        1.000 (bottom)  
 Mach =   0.000     Re =     9.000 e 6     Ncrit =   9.000  9.000
  
   alpha    CL        CD       CDp       CM     Top_Xtr  Bot_Xtr  Top_Itr  Bot_Itr
  ------ -------- --------- --------- -------- -------- -------- -------- --------
  17.623   1.7926   0.01998   0.00923   0.0218   0.0066   1.0000  73.1107 160.0000

.OPERva   c>  
 XFOIL   c>  