
 ===================================================
  XFOIL Version 6.99
  Copyright (C) 2000   Mark Drela, Harold Youngren

  This software comes with ABSOLUTELY NO WARRANTY,
    subject to the GNU General Public License.

  Caveat computor
 ===================================================

 File  xfoil.def  not found

   QUIT    Exit program

  .OPER    Direct operating point(s)
  .MDES    Complex mapping design routine
  .QDES    Surface speed design routine
  .GDES    Geometry design routine

   SAVE f  Write airfoil to labeled coordinate file
   PSAV f  Write airfoil to plain coordinate file
   ISAV f  Write airfoil to ISES coordinate file
   MSAV f  Write airfoil to MSES coordinate file
   REVE    Reverse written-airfoil node ordering
   DELI i  Change written-airfoil file delimiters

   LOAD f  Read buffer airfoil from coordinate file
   NACA i  Set NACA 4,5-digit airfoil and buffer airfoil
   INTE    Set buffer airfoil by interpolating two airfoils
   NORM    Buffer airfoil normalization toggle
   HALF    Halve the number of points in buffer airfoil
   XYCM rr Change CM reference location, currently  0.25000 0.00000

   BEND    Display structural properties of current airfoil

   PCOP    Set current-airfoil panel nodes directly from buffer airfoil points
   PANE    Set current-airfoil panel nodes ( 160 ) based on curvature
  .PPAR    Show/change paneling

  .PLOP    Plotting options

   WDEF f  Write  current-settings file
   RDEF f  Reread current-settings file
   NAME s  Specify new airfoil name
   NINC    Increment name version number

   Z       Zoom    | (available in all menus)
   U       Unzoom  | 

 XFOIL   c>   Max thickness =     0.120032  at x =   0.297
 Max camber    =    -0.000000  at x =   0.018

 Buffer airfoil set using 245 points

 Blunt trailing edge.  Gap =  0.00252

 Paneling parameters used...
   Number of panel nodes       160
   Panel bunching parameter    1.000
   TE/LE panel density ratio   0.150
   Refined-area/LE panel density ratio    0.200
   Top    side refined area x/c limits  1.000 1.000
   Bottom side refined area x/c limits  1.000 1.000

 XFOIL   c>  
 XFOIL   c>  
 XFOIL   c>  
 Blunt trailing edge.  Gap =  0.00252

 Paneling parameters used...
   Number of panel nodes       160
   Panel bunching parameter    1.000
   TE/LE panel density ratio   0.150
   Refined-area/LE panel density ratio    0.200
   Top    side refined area x/c limits  1.000 1.000
   Bottom side refined area x/c limits  1.000 1.000

 XFOIL   c>  
 XFOIL   c>  
 XFOIL   c>  
.OPERi   c>  
.OPERi   c>  
.OPERi   c>  
.OPERi   c>  
 M  =    0.0000
 Re =  0.9000E+07

.OPERv   c>  
 Polar  1 newly created for accumulation
 Airfoil archived with polar: NACA 0012                                       

Enter  polar save filename  OR  <return> for no file   s>  
 Polar save file will NOT be written

Enter  polar dump filename  OR  <return> for no file   s>  
 Polar dump file will NOT be written

 Polar accumulation enabled

.OPERva   c>   Calculating unit vorticity distributions ...
 Calculating wake trajectory ...
 Calculating source influence matrix ...

 Solving BL system ...

 Initializing BL ...
    side            1  ...
 MRCHUE: Inverse mode at  25     Hk =   7.555
 MRCHUE: Inverse mode at  26     Hk =   2.500
 MRCHUE: Inverse mode at  95     Hk =   2.500
 MRCHUE: Inverse mode at  96     Hk =   2.500
    side            2  ...
 MRCHUE: Inverse mode at  62     Hk =   5.315
 MRCHUE: Inverse mode at  63     Hk =   7.402
 MRCHUE: Inverse mode at  64     Hk =   2.500

 Side 1  free  transition at x/c =  0.0093   26
 Side 2  free  transition at x/c =  0.9670   63

   1   rms: 0.2019E+00   max: -.1013E+01   D at   66  2   RLX: 0.494
       a = 11.177      CL =  1.2981
      Cm = -0.0094     CD =  0.00799   =>   CDf =  0.00437    CDp =  0.00361

 Side 1  free  transition at x/c =  0.0105   26
 Side 2  free  transition at x/c =  0.9728   64

   2   rms: 0.1174E+00   max: -.9223E+00   T at   64  2   RLX: 0.542
       a = 11.177      CL =  1.2681
      Cm = -0.0038     CD =  0.00901   =>   CDf =  0.00440    CDp =  0.00461

 Side 1  free  transition at x/c =  0.0110   26
 Side 2  free  transition at x/c =  0.9869   65

   3   rms: 0.7888E-01   max: 0.1077E+01   D at   65  2   RLX: 0.525
       a = 11.177      CL =  1.2532
      Cm = -0.0008     CD =  0.00960   =>   CDf =  0.00437    CDp =  0.00523

 Side 1  free  transition at x/c =  0.0111   26
 Side 2  free  transition at x/c =  0.9976   66

   4   rms: 0.3122E-01   max: 0.5249E+00   D at   66  2
       a = 11.177      CL =  1.2567
      Cm = -0.0023     CD =  0.01018   =>   CDf =  0.00435    CDp =  0.00583

 Side 1  free  transition at x/c =  0.0119   27
 Side 2 forced transition at x/c =  1.0000   66

   5   rms: 0.7647E-02   max: -.1042E+00   C at   66  2
       a = 11.177      CL =  1.2528
      Cm = -0.0014     CD =  0.01012   =>   CDf =  0.00434    CDp =  0.00578

 Side 1  free  transition at x/c =  0.0118   27
 Side 2 forced transition at x/c =  1.0000   66

   6   rms: 0.1429E-02   max: -.1969E-01   D at   27  1
       a = 11.177      CL =  1.2529
      Cm = -0.0014     CD =  0.01013   =>   CDf =  0.00434    CDp =  0.00579

 Side 1  free  transition at x/c =  0.0117   27
 Side 2 forced transition at x/c =  1.0000   66

   7   rms: 0.5891E-04   max: -.8947E-03   D at   27  1
       a = 11.177      CL =  1.2529
      Cm = -0.0014     CD =  0.01013   =>   CDf =  0.00434    CDp =  0.00578
      9.000    4.2708   0.010127   0.000333   0.000351   0.000018    0.0117     #

 Point added to stored polar  1
 Save file unspecified or not available
 Dump file unspecified or not available

.OPERva   c>  
.OPERva   c>  
.OPERva   c>  
        airfoil                    Re           Mach       NcritT  NcritB  XtripT  XtripB       file
       ------------------------  ------------  ----------  ------  ------  ------  ------    -------------------
 >  1  NACA 0012                 9.000e6       0.000         9.00    9.00   1.000   1.000    

Enter polar output filename   s>  
.OPERva   c>  
 ==============================================================
 Polar  1
  
       XFOIL         Version 6.99
  
 Calculated polar for: NACA 0012                                       
  
 1 1 Reynolds number fixed          Mach number fixed         
  
 xtrf =   1.000 (top)        1.000 (bottom)  
 Mach =   0.000     Re =     9.000 e 6     Ncrit =   9.000  9.000
  
   alpha    CL        CD       CDp       CM     Top_Xtr  Bot_Xtr  Top_Itr  Bot_Itr
  ------ -------- --------- --------- -------- -------- -------- -------- --------
  11.177   1.2529   0.01013   0.00377  -0.0014   0.0117   1.0000  70.7646 160.0000

.OPERva   c>  
 XFOIL   c>  